    20
VM2 Rank=1      G=27.005            E=4.317             -TS=22.689              
N         19.7357945645       18.9391156751       25.6478663937
H         20.2631662570       19.1851057052       26.4922411302
H         18.8386659290       19.4314430991       25.7041014105
H         19.5331328437       17.9361507480       25.7059776749
C         20.4972626251       19.2911916705       24.3858439821
H         21.4511122790       18.7571156381       24.4070778931
H         20.7044755075       20.3646016412       24.4050477766
C         19.7325763845       18.9343993998       23.0985117583
H         19.5127299680       17.8584443266       23.0909578576
H         18.7685406406       19.4603392713       23.0890449175
C         20.5420861168       19.3089759837       21.8371165170
H         21.5080618559       18.7850999732       21.8524516572
H         20.7647182404       20.3851017676       21.8505390875
C         19.7838689865       18.9551632432       20.5380959282
H         19.5610033360       17.8790422272       20.5195731310
H         18.8177559051       19.4788565132       20.5176572004
C         20.5964113227       19.3311540276       19.2805654208
H         20.0420370466       19.0725301368       18.3690692954
H         20.8056436951       20.4085000843       19.2529364977
H         21.5546911574       18.7961287302       19.2548461178
