    20
VM2 Rank=1      G=53.936            E=31.434            -TS=22.502              
C         19.8543574484       19.1510185397       18.8169569981
H         20.0357327642       20.2331368594       18.7809044871
H         20.3379087815       18.6998890026       17.9407808695
H         18.7731778844       18.9828080251       18.7278940113
C         20.4072299439       18.5374278429       20.1215885742
H         21.4948075843       18.6911510183       20.1651267651
H         20.2421056000       17.4506874152       20.1125845741
C         19.7439622211       19.1542438491       21.3727362996
H         19.9122389340       20.2393928441       21.3827294518
H         18.6579189272       18.9971950257       21.3301829173
C         20.3005673155       18.5373696434       22.6693594490
H         21.3791616019       18.7056099160       22.7224495089
H         20.1208382600       17.4593231484       22.6696964802
N         19.6775135388       19.1132522701       23.9258884699
H         18.6546426280       18.9804603835       23.9098771669
H         19.8195970672       20.1344750781       23.9586244418
C         20.2823695323       18.4506878547       25.1564702092
H         20.0901692535       17.3762686939       25.1178745891
H         21.3590672697       18.6332280587       25.1709509117
H         19.8251272625       18.8744027046       26.0533563352
    20
VM2 Rank=2      G=54.084            E=31.414            -TS=22.670              
C         20.2446342793       19.5233249980       19.0575347261
H         21.0842027231       20.2046318303       19.2475736894
H         20.4069865672       19.0550271034       18.0780672051
H         19.3263756090       20.1217925533       18.9958261697
C         20.1366822160       18.4513515692       20.1636494340
H         21.0550920409       17.8474907765       20.1778325236
H         19.3111242665       17.7650413637       19.9275518194
C         19.9075596637       19.0821597215       21.5547893424
H         20.7341090541       19.7662778402       21.7862055643
H         18.9878750768       19.6818364516       21.5410388720
C         19.7992589978       18.0036025323       22.6524935465
H         20.7299424891       17.4331619881       22.7054856829
H         18.9935650027       17.3123987349       22.3921611663
N         19.5004925983       18.5425125237       24.0421251164
H         19.2822646997       17.7583510109       24.6767542593
H         18.6431440195       19.1156476562       24.0265153676
C         20.6773722449       19.3410486553       24.5924078347
H         20.8597945525       20.2062791490       23.9521073823
H         20.4393036052       19.6778855007       25.6037614464
H         21.5642317920       18.7041640445       24.6161760930
    20
VM2 Rank=3      G=54.174            E=31.503            -TS=22.670              
C         19.4686773491       18.7548436661       19.0250495515
H         19.9764997922       18.6288152613       18.0600349090
H         18.7727295920       17.9151847770       19.1507404748
H         18.8812960429       19.6810562316       18.9772696879
C         20.4938772723       18.8051820446       20.1786086150
H         21.1967175042       19.6326535961       20.0065159085
H         21.0885734990       17.8807023426       20.1792279625
C         19.8068979843       18.9825079369       21.5505781704
H         19.2165374713       19.9083031646       21.5506774884
H         19.1062896984       18.1543286907       21.7179761272
C         20.8390253218       19.0331953050       22.6960528840
H         21.5477917599       19.8416310728       22.4991787026
H         21.3983734153       18.0950522453       22.7334618027
N         20.2445688669       19.2792589465       24.0733080036
H         19.6803297594       20.1426232819       24.0700177473
H         21.0031369725       19.4622611083       24.7488601938
C         19.4129532056       18.0890121009       24.5394027756
H         20.0402687864       17.1951344924       24.5522222480
H         19.0358539872       18.2880914729       25.5449552752
H         18.5739347046       17.9429111639       23.8563293937
    20
VM2 Rank=4      G=54.305            E=31.706            -TS=22.599              
C         20.8666911011       19.3665024949       19.5193162246
H         20.5575600222       20.4198454310       19.5218683177
H         21.7363822631       19.2628311081       20.1803405394
H         21.1933819171       19.1162918755       18.5016433429
C         19.7057141945       18.4445547207       19.9579845112
H         20.0429843511       17.3984058521       19.9527099852
H         18.8957928329       18.5113089052       19.2179941140
C         19.1424458514       18.8035425002       21.3529876509
H         18.7742243651       19.8380627158       21.3461178815
H         18.2762583516       18.1625137577       21.5643086674
C         20.1839500355       18.6321850247       22.4759994353
H         21.0330191217       19.2956637777       22.2953240816
H         20.5483778070       17.6018949692       22.4843448062
N         19.6383292774       18.9444054250       23.8555983084
H         18.8280473239       18.3408794695       24.0636963760
H         19.2747082318       19.9092858251       23.8852111044
C         20.7288695401       18.7528098345       24.9011138695
H         20.3227102474       18.9807617685       25.8890808356
H         21.0742972711       17.7170419183       24.8752344052
H         21.5606898230       19.4254383148       24.6810135239
    20
VM2 Rank=5      G=54.310            E=31.711            -TS=22.599              
C         19.6008475735       18.1121104315       19.4663402040
H         19.6694078263       17.2145282053       20.0938020826
H         18.5509029274       18.4313388252       19.4378992432
H         19.8910936785       17.8258157895       18.4471333040
C         20.5129454829       19.2444716137       19.9918144929
H         20.4841385954       20.0852706033       19.2845373655
H         21.5555809006       18.8972988921       20.0160713336
C         20.1000333086       19.7524283226       21.3931218776
H         20.7387849294       20.6024588257       21.6675332748
H         19.0698450445       20.1310833212       21.3585074706
C         20.2150420098       18.6631036871       22.4772760981
H         21.2409276276       18.2880840621       22.5132206459
H         19.5525725016       17.8292078943       22.2333116527
N         19.8496012826       19.1536213672       23.8644732897
H         18.8874971540       19.5256751895       23.8691081265
H         20.4507653486       19.9481559455       24.1317184807
C         19.9875303425       18.0182645779       24.8699740377
H         21.0204422303       17.6634571843       24.8727475341
H         19.7216648561       18.3849877189       25.8638723919
H         19.3176086821       17.2034555731       24.5869703924
    20
VM2 Rank=6      G=54.342            E=31.753            -TS=22.589              
C         19.6844483827       18.8157686006       18.9888497388
H         18.8181143565       19.4883648857       18.9412833249
H         20.5415172730       19.3302809128       18.5351100600
H         19.4591911006       17.9336728810       18.3755049810
C         19.9895767833       18.4041809904       20.4453919039
H         20.8398587260       17.7076005794       20.4564257242
H         19.1273714915       17.8584111606       20.8518813376
C         20.3100226972       19.6309660292       21.3316767041
H         21.1481155551       20.1874401484       20.8914283744
H         19.4536578026       20.3181559506       21.3479831480
C         20.6878558357       19.2435694855       22.7755264228
H         20.9884597813       20.1404067103       23.3231941043
H         21.5356767235       18.5540602569       22.7609679604
N         19.5633428144       18.5876287305       23.5546878778
H         19.2485700061       17.7325779786       23.0727511831
H         18.7396072191       19.2079948899       23.5802644008
C         20.0307534868       18.2618861637       24.9668673525
H         19.2125673022       17.7907105861       25.5160062305
H         20.8813653646       17.5787703390       24.9158586903
H         20.3277632013       19.1849251634       25.4694311520
    20
VM2 Rank=7      G=54.383            E=31.794            -TS=22.589              
C         20.1834541824       19.3099583269       19.0097771207
H         19.6811598117       18.4780765369       18.4990492245
H         19.5210334899       20.1845195523       18.9707445573
H         21.0926326942       19.5514548379       18.4440031460
C         20.5303879177       18.9398155117       20.4680820006
H         21.0659674723       19.7784783010       20.9331578454
H         21.2184431059       18.0825595955       20.4723389805
C         19.2644667702       18.5954308178       21.2878576479
H         18.5846851298       19.4575173611       21.3115326778
H         18.7198356989       17.7823753388       20.7896599457
C         19.5871453629       18.1534610930       22.7294131506
H         20.2692115017       17.2997873149       22.7079271730
H         18.6653606502       17.8396530440       23.2258579315
N         20.2193831697       19.2374250823       23.5821657861
H         19.6056945488       20.0658267430       23.6165887873
H         21.0967214078       19.5631221467       23.1501314709
C         20.4811625971       18.7079091684       24.9857042941
H         21.1582772401       17.8529807941       24.9273638424
H         20.9359868408       19.4973619247       25.5881071530
H         19.5351725526       18.3999400694       25.4363070622
    20
VM2 Rank=8      G=54.497            E=31.685            -TS=22.812              
C         19.9199917498       18.3277179621       19.2181327704
H         19.1804856947       17.5283175807       19.3568823627
H         19.4297342600       19.1596529136       18.6959473088
H         20.7133542764       17.9420108466       18.5648278367
C         20.5031029167       18.7866612885       20.5721325981
H         21.2614868662       19.5630256627       20.3980852897
H         21.0177540680       17.9399095896       21.0462670397
C         19.4038628161       19.3332691046       21.5132057228
H         18.8685874833       20.1494178327       21.0101854208
H         18.6579232280       18.5531246862       21.7124330409
C         19.9681565828       19.8725650535       22.8463955866
H         19.1524540543       20.2800233091       23.4489741686
H         20.6653551521       20.6867890755       22.6328954347
N         20.7069998748       18.8538868325       23.7013997466
H         21.1551095786       19.3327258621       24.4983542653
H         21.4861768689       18.4403958679       23.1685422874
C         19.7638860598       17.7698997588       24.2117335756
H         18.9607629672       18.2343520764       24.7878709931
H         19.3443648404       17.2262108678       23.3629584267
H         20.3223828197       17.0804288382       24.8486347145
