    19
VM2 Rank=1      G=-26.152           E=-40.889           -TS=14.737              
C         19.9538820391       19.2770585831       25.5145004838
O         20.6501487364       18.4763276188       26.1062979008
O         19.7317709021       20.4017916319       25.9167733346
C         19.3418780975       18.8541620756       24.1837196512
H         18.3778532512       19.3654072707       24.0740510217
H         19.1346332336       17.7782378142       24.2303952969
C         20.2548906342       19.1702851866       22.9735174708
H         20.4633768204       20.2489178128       22.9482903881
H         21.2201166615       18.6616479205       23.1045831341
C         19.6127437333       18.7327756354       21.6394034024
H         18.6474970729       19.2419354180       21.5119380074
H         19.4043253598       17.6543872526       21.6682725081
C         20.5244766818       19.0488807711       20.4355795373
H         20.7336894152       20.1271218045       20.4021260073
H         21.4904657953       18.5397066502       20.5584559450
C         19.8802091755       18.6107184976       19.1052082190
H         19.6887130766       17.5296490177       19.0988104342
H         18.9262751292       19.1289528588       18.9413027195
H         20.5415210342       18.8427759346       18.2602682710
    19
VM2 Rank=2      G=-25.407           E=-40.253           -TS=14.845              
C         19.8291934927       19.3145823337       25.3694969809
O         20.1458289499       18.4558655918       26.1686448320
O         19.7257886721       20.4915245415       25.6530036711
C         19.5681487569       18.8951259560       23.9271823735
H         18.7936388607       19.5564584041       23.5226850646
H         19.1558922341       17.8790318014       23.9375728638
C         20.8441526361       18.9454571701       23.0471478898
H         21.2225770742       19.9762727858       23.0081097436
H         21.6284029586       18.3452570065       23.5289498298
C         20.6254279785       18.4139046021       21.6107855216
H         20.2552128712       17.3803882953       21.6531252298
H         21.5981730012       18.3749099056       21.1016096175
C         19.6562068066       19.2805671919       20.7759101382
H         18.6554101297       19.2713270690       21.2272239886
H         19.9987896348       20.3245521768       20.7758331692
C         19.5552527073       18.7749726129       19.3228285930
H         20.5340350652       18.8066761780       18.8264753078
H         19.1882010776       17.7407020755       19.2918035604
H         18.8615878196       19.3983805674       18.7437943082
    19
VM2 Rank=3      G=-25.370           E=-40.215           -TS=14.846              
C         20.1746647562       19.3730581709       25.3607207233
O         20.1981915329       18.4646857994       26.1673158361
O         19.8984339239       20.5207137447       25.6485495909
C         20.4874539696       19.0508071319       23.9037800335
H         21.2110043936       18.2270100189       23.8852123893
H         20.9802837174       19.9267224341       23.4670472107
C         19.2240195592       18.6712372739       23.0884024448
H         18.7056849309       17.8505364829       23.6033800122
H         18.5261473780       19.5198530562       23.0767603032
C         19.5340676685       18.2291808103       21.6385814807
H         18.6043406702       17.8681529294       21.1778434147
H         20.2252230059       17.3753202605       21.6539068838
C         20.1217653916       19.3593737306       20.7640601193
H         19.4553089976       20.2325574248       20.7896494388
H         21.0909409001       19.6836032420       21.1652299960
C         20.3114031981       18.9029433384       19.3035897714
H         20.9961709921       18.0466952300       19.2458102560
H         19.3533658359       18.6068284450       18.8565244274
H         20.7319334891       19.7149267829       18.6961960472
    19
VM2 Rank=4      G=-25.272           E=-40.125           -TS=14.853              
C         20.0104990226       19.3757520573       25.3742981532
O         20.8022405566       18.7068221270       26.0082715016
O         19.7500482898       20.5339962269       25.6328617430
C         19.3189781432       18.7315797967       24.1779104408
H         18.3202770820       19.1744598042       24.0820852627
H         19.1814006006       17.6659132796       24.3972418969
C         20.1098560331       18.9083420849       22.8581720597
H         20.2512412486       19.9807490278       22.6695584190
H         21.1101311983       18.4684619836       22.9730435385
C         19.3844213523       18.2492516102       21.6623440919
H         18.4037915044       18.7228439628       21.5171446639
H         19.1887808653       17.1946302415       21.9000215284
C         20.1900059532       18.3140712423       20.3442312798
H         21.1695881364       17.8363376597       20.4839283380
H         19.6638180888       17.7253573314       19.5801721525
C         20.3839506492       19.7521848546       19.8169107300
H         19.4182494704       20.2603406663       19.6970985919
H         21.0050550692       20.3481724401       20.4971834471
H         20.8820956383       19.7382621879       18.8388520400
    19
VM2 Rank=5      G=-25.266           E=-40.119           -TS=14.853              
C         19.8728370696       19.2876278305       25.3816640477
O         20.1974151841       18.3192818603       26.0398425172
O         18.9511135261       20.0224954611       25.6759693470
C         20.6535950842       19.5863884932       24.1066510768
H         21.6933373733       19.2747297141       24.2631126105
H         20.6597575137       20.6728248374       23.9571618008
C         20.0650593705       18.8797207730       22.8605849887
H         20.0570470173       17.7940331512       23.0292771288
H         19.0199174543       19.1921736423       22.7354045170
C         20.8733698471       19.2030755022       21.5828016105
H         21.9286701916       18.9498064299       21.7536458583
H         20.8402083545       20.2836048231       21.3869376429
C         20.3804397600       18.4360317564       20.3341013224
H         21.0747498127       18.6293518574       19.5047618400
H         20.4175540109       17.3544437264       20.5241451815
C         18.9561701584       18.8373783234       19.8933850896
H         18.2095261452       18.5569333848       20.6467882185
H         18.8871908700       19.9201023137       19.7257333853
H         18.6880060689       18.3325717380       18.9562625205
    19
VM2 Rank=6      G=-24.722           E=-39.769           -TS=15.047              
C         20.1397062003       19.2124575105       25.1802733596
O         20.9104685340       18.2974348498       25.3928966868
O         20.3192385285       20.3475963000       25.5751276947
C         18.8654818863       18.9175973130       24.3936636935
H         18.0325215567       19.3859653117       24.9311754048
H         18.6856949845       17.8357558179       24.4104835988
C         18.8927313752       19.4329070486       22.9312000372
H         17.8955187437       19.3034891645       22.4892131813
H         19.1020480187       20.5117087198       22.9293475997
C         19.9351357105       18.6959762582       22.0607792464
H         19.7293979353       17.6168739561       22.0762843470
H         20.9382756370       18.8348492629       22.4872142845
C         19.9230887920       19.2026112256       20.6034603619
H         18.9230611056       19.0623254376       20.1702231218
H         20.1310044732       20.2814529447       20.5848568373
C         20.9641489732       18.4654194943       19.7375989199
H         21.9783275027       18.6148183516       20.1307433651
H         20.7614216748       17.3866685003       19.7130685254
H         20.9423990491       18.8380661084       18.7052493593
    19
VM2 Rank=7      G=-24.721           E=-39.768           -TS=15.047              
C         20.0469197473       19.4069243149       25.1611583381
O         21.0055440464       18.9083909897       25.7172033802
O         19.8125761136       20.5992374520       25.1660306370
C         19.0738282936       18.4809143117       24.4366318011
H         18.1246864833       19.0118877549       24.2945634482
H         18.8675669293       17.6354308842       25.1035082932
C         19.5995691074       17.9514483356       23.0770915560
H         20.5639464879       17.4475902119       23.2311511757
H         18.9030209187       17.1918400017       22.6971566556
C         19.7563014165       19.0709829846       22.0238191150
H         20.4651061225       19.8268363582       22.3894733787
H         18.7929276061       19.5799907850       21.8829223170
C         20.2500383342       18.5173705723       20.6709186860
H         21.2148740812       18.0098028060       20.8085402594
H         19.5426843407       17.7636263283       20.2981601164
C         20.4052229410       19.6367310393       19.6221464866
H         20.7572655629       19.2258897127       18.6669705887
H         19.4469988971       20.1413479763       19.4416644680
H         21.1315674740       20.3894066638       19.9558290208
    19
VM2 Rank=8      G=-24.443           E=-39.689           -TS=15.246              
C         20.0072746180       19.2236370349       25.5349363674
O         19.9565843354       18.5580558800       26.5498719981
O         20.1008403880       20.4358086782       25.5404520396
C         19.9480846662       18.4725390649       24.2037624207
H         19.0189301430       17.8905741339       24.1975434115
H         20.7764851452       17.7543843554       24.1962421557
C         20.0162673602       19.3644734151       22.9355996299
H         19.1871643656       20.0854330506       22.9521367932
H         20.9465367179       19.9491391349       22.9508650212
C         19.9504249985       18.5266811097       21.6402115326
H         19.0197579183       17.9428683264       21.6271181637
H         20.7800849391       17.8065373407       21.6258100352
C         20.0183042918       19.4152455456       20.3807512074
H         19.1887909805       20.1358739402       20.3904873901
H         20.9489546680       19.9994655356       20.3891155516
C         19.9522193419       18.5755592716       19.0894148044
H         19.0158735084       18.0044085592       19.0397652984
H         20.0017043476       19.2228713329       18.2041765610
H         20.7892911072       17.8669494190       19.0383883668
