    20
VM2 Rank=1      G=-21.890           E=-37.137           -TS=15.248              
C         20.4454814431       18.0660556545       18.7398728268
H         20.6596560712       17.7973927995       17.7068477127
H         20.5834493769       17.2883396257       19.4879837714
C         20.0331055695       19.2995238012       19.0535863019
H         19.9133423477       20.0361944910       18.2594815534
C         19.6972450686       19.8196702923       20.4412672765
H         18.6643261369       20.1927662195       20.4377635664
H         20.3271591484       20.6942111394       20.6522674234
C         19.8605127674       18.7896903996       21.5834001228
H         19.2167442862       17.9208945726       21.3888749021
H         20.8976153059       18.4277394410       21.6056785396
C         19.5003378850       19.3965503984       22.9570860073
H         18.4636510614       19.7607449542       22.9412802115
H         20.1411052515       20.2664864045       23.1576700169
C         19.6629540761       18.3671070829       24.1024591202
H         19.0192235120       17.4973584503       23.9242696486
H         20.6967040152       18.0030948919       24.1406586308
C         19.3129469500       18.9429657679       25.4698900931
O         20.1971413260       19.4750597260       26.1115468716
O         18.1612749144       18.8613768774       25.8488913799
    20
VM2 Rank=2      G=-21.880           E=-36.772           -TS=14.892              
C         19.7352399259       18.4522410768       18.2411057145
H         18.6523152093       18.3602355060       18.3074477693
H         20.2190363288       18.0464467086       17.3542301522
C         20.4463332082       19.0369356813       19.2086422773
H         21.5297258959       19.1181554401       19.1230659490
C         19.8449075787       19.6233059036       20.4664499923
H         18.7578675200       19.7336024012       20.3525032715
H         20.2491286975       20.6309881611       20.6317515922
C         20.1457717744       18.7371597303       21.6932678752
H         19.7430572753       17.7293766669       21.5211564138
H         21.2331427144       18.6307882377       21.8095128196
C         19.5410832487       19.3233052387       22.9876008373
H         18.4531772059       19.4287515508       22.8737125677
H         19.9428442034       20.3313259431       23.1610784255
C         19.8423740325       18.4338325521       24.2188776739
H         19.4358560835       17.4266919449       24.0671352251
H         20.9255247554       18.3293122576       24.3547532546
C         19.2548943549       18.9919764247       25.5101288396
O         19.9339521106       19.7577662870       26.1651807168
O         18.1264437660       18.6614771055       25.8167460732
    20
VM2 Rank=3      G=-21.823           E=-36.714           -TS=14.891              
C         19.8357083978       18.3567457762       18.2569680127
H         19.5624330268       18.6704803906       17.2509030235
H         19.7745141847       17.2936307321       18.4841948343
C         20.2276608798       19.2447995754       19.1742359290
H         20.2812387160       20.3047263074       18.9265592470
C         20.6226419713       18.8840519540       20.5889694708
H         21.5740526109       19.3716139045       20.8404536090
H         20.7904069474       17.8016201149       20.6726436381
C         19.5374309915       19.3154001494       21.5974863351
H         19.3731755577       20.3987679865       21.5166364479
H         18.5869684735       18.8282889524       21.3390833531
C         19.9263231699       18.9570370344       23.0482948107
H         20.8768734936       19.4433673214       23.3081958036
H         20.0892217256       17.8734382256       23.1313977865
C         18.8371490279       19.3893878913       24.0605923999
H         18.6717613566       20.4717731758       23.9998448852
H         17.8840847313       18.9018145461       23.8227792434
C         19.1982968752       19.0457307715       25.5012368949
O         19.8213526810       19.8648739934       26.1473430317
O         18.8644360057       17.9599728545       25.9328731152
    20
VM2 Rank=4      G=-21.277           E=-36.308           -TS=15.032              
C         19.2310112904       18.4035444332       18.7286558661
H         18.2506538856       18.2551863668       18.2791161546
H         20.0633368980       17.8369391229       18.3142904075
C         19.4012192639       19.2462741743       19.7506682700
H         18.5549691708       19.8058392418       20.1482113690
C         20.7332990124       19.5076866819       20.4207578051
H         20.8632135918       20.5853858570       20.5873288438
H         21.5499822189       19.1991797095       19.7541191655
C         20.8758579981       18.7517729376       21.7610290805
H         20.7293981562       17.6762297769       21.5905542962
H         21.9037309804       18.8747727787       22.1287600013
C         19.8878321836       19.2504364550       22.8404637234
H         18.8540235885       19.0971569430       22.5021918347
H         20.0177848145       20.3310751880       22.9910927476
C         20.0917843306       18.5178628598       24.1894632463
H         19.9534486849       17.4379398625       24.0581722846
H         21.1145024151       18.6721051785       24.5538677486
C         19.1276067090       18.9909702297       25.2713956390
O         19.4622123836       19.9292977464       25.9672976833
O         18.0601768283       18.4201544822       25.3782686862
    20
VM2 Rank=5      G=-21.257           E=-36.290           -TS=15.033              
C         21.2427933949       19.0105948255       18.9879256592
H         20.9773519200       18.1128953142       18.4318840650
H         22.2180529130       19.4523026076       18.7905405653
C         20.4087050255       19.5501476318       19.8805935889
H         20.6930716463       20.4507965584       20.4239699659
C         19.0371091484       18.9958704129       20.2019921467
H         18.7024766911       18.3400055784       19.3868739553
H         18.3065799683       19.8139763715       20.2575867308
C         19.0219199908       18.1923838621       21.5219299328
H         18.0412055117       17.7094065290       21.6306019436
H         19.7655072198       17.3853611032       21.4662684334
C         19.2948526317       19.0714902509       22.7639931034
H         18.5664959683       19.8932379863       22.8038154794
H         20.2900412716       19.5302161283       22.6874773619
C         19.2152351729       18.2534846687       24.0764701706
H         18.2223466631       17.7998262049       24.1808760473
H         19.9453975357       17.4354970891       24.0572837105
C         19.4823665099       19.0980445734       25.3171980250
O         20.6282943688       19.1944168634       25.7099092945
O         18.5397237571       19.6515669112       25.8479880789
    20
VM2 Rank=6      G=-21.153           E=-36.159           -TS=15.007              
C         19.7218396137       18.9158851688       18.3062549472
H         18.7432495662       19.3929942848       18.3237401164
H         20.2156179680       18.8208265830       17.3406427234
C         20.2984776027       18.4655315361       19.4235479278
H         21.2790687279       17.9916767574       19.3844070581
C         19.6742769387       18.5615208057       20.7979138233
H         19.7369047133       17.5831133098       21.2907060420
H         18.6069716607       18.8072404471       20.7137970854
C         20.3831079659       19.6338918817       21.6554627202
H         21.4372635353       19.3578696765       21.7953196522
H         20.3819779471       20.5845468621       21.1044699217
C         19.7172124382       19.8615370340       23.0334837823
H         18.6661957343       20.1505572419       22.8948335612
H         20.2097539924       20.7110896760       23.5265938090
C         19.7959093308       18.6281500966       23.9702529330
H         19.2360379440       17.7858903285       23.5484890288
H         20.8373537326       18.3038374477       24.0824974939
C         19.2353408565       18.9074594468       25.3601155169
O         19.9948234280       19.3258922117       26.2114871597
O         18.0500118255       18.7181318185       25.5494811896
    20
VM2 Rank=7      G=-21.140           E=-36.251           -TS=15.112              
C         18.6388088791       19.5593470169       19.3942203997
H         17.7305541935       19.2212501510       18.8983684459
H         18.7026375378       20.6135038995       19.6589794522
C         19.6324065428       18.7100167039       19.6688352271
H         19.5475543317       17.6580847573       19.3974825559
C         20.9225717132       19.1054670815       20.3551793845
H         21.0130609738       20.1989503218       20.4079353303
H         21.7712880473       18.7532498454       19.7539571927
C         21.0367877964       18.5092024600       21.7762226056
H         20.9454172728       17.4156075444       21.7234272598
H         22.0396692774       18.7224235534       22.1707457872
C         19.9772455159       19.0769744227       22.7481231049
H         18.9686521936       18.8467846397       22.3780101659
H         20.0593021231       20.1720038559       22.7863905165
C         20.1379550889       18.5008884717       24.1765194177
H         20.0457816274       17.4083312812       24.1563155923
H         21.1343450841       18.7353617005       24.5698601659
C         19.1032139165       19.0460030450       25.1544020740
O         19.3625470183       20.0727578873       25.7504475943
O         18.0594635288       18.4373429111       25.2840501923
    20
VM2 Rank=8      G=-21.130           E=-36.242           -TS=15.112              
C         20.3964414907       17.5035736060       19.6231738814
H         21.4118404332       17.4448542211       20.0116786794
H         19.9722980776       16.5991343480       19.1905114569
C         19.6937979034       18.6382171373       19.6769261513
H         18.6778674938       18.6751104454       19.2846024444
C         20.2150053797       19.9331041376       20.2630919882
H         20.0722173871       20.7405904297       19.5327348043
H         21.2963652095       19.8676134769       20.4448850207
C         19.4934472337       20.3144410757       21.5752957192
H         19.8214708368       21.3170555264       21.8819661391
H         18.4118465197       20.3791633939       21.3935398535
C         19.7730653902       19.3157061923       22.7215597504
H         20.8561604183       19.2397333240       22.8901421636
H         19.4247529976       18.3131209182       22.4374283920
C         19.0780897508       19.7406140465       24.0385558082
H         19.4260721340       20.7335736435       24.3474683063
H         17.9938098405       19.8085732196       23.8892124463
C         19.3388943890       18.7703105369       25.1851088616
O         20.3231369610       18.9491689406       25.8750544490
O         18.5591215016       17.8528643270       25.3492333908
