    17
VM2 Rank=1      G=15.404            E=-2.454            -TS=17.858              
N         19.6262204792       18.8413708990       24.1383348394
H         18.6402004046       19.1180861540       24.1681567025
H         20.0581095809       19.1907194715       24.9999245865
H         19.6530618545       17.8183533439       24.1874394954
C         20.3271170845       19.3692383486       22.9024305413
H         21.3758161529       19.0639124396       22.9527406917
H         20.2866155489       20.4614883171       22.9319710585
C         19.7034678263       18.8636740291       21.5887593020
H         19.7320436222       17.7660395115       21.5694896089
H         18.6464345843       19.1587682522       21.5488787698
C         20.4461251563       19.4243323889       20.3560196018
H         21.5050050318       19.1320766760       20.3970656404
H         20.4206446878       20.5230864249       20.3764520189
C         19.8260694537       18.9213843344       19.0344557155
H         20.3673942274       19.3306273182       18.1715903839
H         18.7755093959       19.2282534293       18.9486594961
H         19.8684528443       17.8263139772       18.9694106295
