    25
VM2 Rank=1      G=-7.962            E=-32.361           -TS=24.399              
C         20.1600929375       19.3401444968       27.8084374504
O         21.2157055408       19.7049891687       28.2871760149
O         19.0777426013       19.5690069007       28.3111914074
C         20.1941384294       18.5724032295       26.4918164013
H         19.3547163079       17.8667453130       26.4872180760
H         21.1163698027       17.9795468862       26.4669631834
C         20.1205550444       19.4990601093       25.2533048894
H         19.1984374018       20.0949548805       25.3002188442
H         20.9599710542       20.2077653841       25.2799462248
C         20.1566173319       18.6986253814       23.9334491797
H         19.3170894787       17.9902131281       23.9105737468
H         21.0790105184       18.1032283735       23.8901606075
C         20.0828984499       19.6249649218       22.7005976415
H         19.1605705543       20.2204143987       22.7436745021
H         20.9223486697       20.3334246107       22.7232259846
C         20.1188703176       18.8252100851       21.3803798507
H         19.2795136840       18.1166541271       21.3574443842
H         21.0411501697       18.2297183123       21.3369531853
C         20.0451139401       19.7509737487       20.1479509171
H         19.1227620140       20.3469889404       20.1869748529
H         20.8843904858       20.4600310166       20.1664599353
C         20.0812654071       18.9486219580       18.8316962475
H         19.2340021982       18.2529069493       18.7723324507
H         20.0279588003       19.6221056110       17.9664415199
H         21.0088874875       18.3668081261       18.7516441197
    25
VM2 Rank=2      G=-7.123            E=-31.631           -TS=24.508              
C         19.8606356286       19.1637301963       27.5407111164
O         20.6739614077       18.7865331661       28.3610460648
O         18.8684679165       19.8062219186       27.8226594488
C         20.1115248034       18.8329614447       26.0738496208
H         19.1369098169       18.6967607366       25.5918854766
H         20.6356325811       17.8709393302       26.0269971353
C         20.9343841709       19.9269173181       25.3449709734
H         20.3786200106       20.8746880542       25.3593842738
H         21.8622075776       20.1031000537       25.9067258914
C         21.2998955209       19.5571178465       23.8877329942
H         21.8644320516       18.6146738455       23.8777958837
H         21.9750640504       20.3279386526       23.4915287586
C         20.0710530084       19.4384274026       22.9568799816
H         19.4211190125       18.6215593365       23.2963229349
H         19.4798690151       20.3628683364       23.0097667326
C         20.4875629177       19.1764232909       21.4933086181
H         21.0821510812       18.2540404151       21.4407718237
H         21.1332003118       19.9934164662       21.1429836269
C         19.2627321110       19.0534851921       20.5626383754
H         18.6154148734       18.2355343587       20.9081981191
H         18.6662823802       19.9750694867       20.6117040850
C         19.6827825148       18.7921822242       19.1022028065
H         20.2547535280       17.8587381308       19.0190073021
H         18.8001606691       18.7076125309       18.4549737759
H         20.3059748151       19.6113588143       18.7201426891
    25
VM2 Rank=3      G=-7.104            E=-31.612           -TS=24.508              
C         20.1314582441       19.7074696054       27.5207795305
O         20.9463863585       19.3333301278       28.3409241643
O         19.0292531610       20.1289886086       27.8108712492
C         20.5035141046       19.6201254011       26.0449814201
H         21.5851251929       19.7774727261       25.9570664128
H         20.0103891145       20.4507186200       25.5276244448
C         20.1061167290       18.2641296698       25.4058777562
H         20.5414287672       17.4514929663       26.0038667331
H         19.0158250978       18.1387239598       25.4596167340
C         20.5787330182       18.1093758529       23.9407566856
H         20.3594068196       17.0848402501       23.6102749185
H         21.6702246525       18.2246027006       23.8920808242
C         19.9055775636       19.1060513846       22.9690945909
H         18.8136359831       19.0255252178       23.0589003325
H         20.1753162304       20.1347784014       23.2408893968
C         20.3226184616       18.8453807319       21.5054373285
H         20.0497940933       17.8193944952       21.2226460132
H         21.4149871665       18.9218882745       21.4162091703
C         19.6553758656       19.8414974601       20.5338373478
H         18.5624203242       19.7668418276       20.6195740904
H         19.9279073390       20.8691114987       20.8117039229
C         20.0739664938       19.5776511577       19.0734399267
H         19.7847576564       18.5664340448       18.7584982150
H         19.5907172258       20.2944828365       18.3969036498
H         21.1606430511       19.6768483047       18.9522632015
    25
VM2 Rank=4      G=-7.053            E=-31.561           -TS=24.508              
C         20.1305230355       19.1678200020       27.7050714262
O         21.2278216435       19.2439682534       28.2215697518
O         19.2276151262       18.4807720544       28.1402185128
C         19.8800980524       19.9603843968       26.4270975126
H         20.4717638725       20.8823790431       26.4766226383
H         18.8235308645       20.2535709723       26.4096376507
C         20.2355359825       19.1650328045       25.1468249941
H         21.2927231073       18.8677203864       25.1859928092
H         19.6446279872       18.2389397394       25.1191754946
C         19.9733894568       19.9882940417       23.8671164345
H         20.5642703520       20.9140135337       23.8990118641
H         18.9159728531       20.2844846789       23.8310898128
C         20.3287749975       19.1928788933       22.5923793345
H         21.3868412775       18.8993808698       22.6261566568
H         19.7393054777       18.2670662660       22.5701965852
C         20.0622446509       20.0172329067       21.3116609623
H         20.6032455578       20.9708343514       21.3814456920
H         18.9947518343       20.2691017720       21.2489970904
C         20.5007884452       19.2978513431       20.0148378267
H         20.3875634876       19.9923812205       19.1710067963
H         21.5697824673       19.0500851433       20.0712689496
C         19.6862086096       18.0197653041       19.7192232445
H         18.6107372473       18.2376995140       19.6877691475
H         19.9739331849       17.5973955754       18.7477663873
H         19.8595531340       17.2489993252       20.4805226275
    25
VM2 Rank=5      G=-7.044            E=-31.544           -TS=24.499              
C         20.0215705311       19.1704785431       27.6698428402
O         21.0605436979       19.2685020790       28.2923913820
O         18.9410086310       19.5175094185       28.1041133121
C         20.0802007638       18.6011077642       26.2568823798
H         19.1419938941       18.0663957520       26.0659659804
H         20.8884618027       17.8608175500       26.2211739480
C         20.3042638458       19.6897592099       25.1785680006
H         19.4938807125       20.4297357570       25.2359349279
H         21.2402424452       20.2243942629       25.3922267495
C         20.3598815815       19.0884704490       23.7573825703
H         19.4238716495       18.5506601041       23.5582978878
H         21.1724793514       18.3511977230       23.7024048287
C         20.5795183890       20.1799533853       22.6845080889
H         19.7405570892       20.8890503146       22.7000611417
H         21.4784959142       20.7568196291       22.9413441150
C         20.7529093377       19.6141858136       21.2548144384
H         21.5945964800       18.9083671758       21.2379492697
H         21.0272812248       20.4403987224       20.5847440138
C         19.4834117998       18.9243484144       20.7061340752
H         19.2359466616       18.0461896839       21.3168208971
H         18.6294848157       19.6125242461       20.7727242066
C         19.6696914223       18.4796849230       19.2413629125
H         20.5012245131       17.7686635031       19.1498391865
H         18.7615617560       17.9890837428       18.8676357978
H         19.8810783895       19.3400264879       18.5929227283
    25
VM2 Rank=6      G=-7.037            E=-31.542           -TS=24.505              
C         20.3737101833       19.6427797082       27.4432866805
O         21.5152406842       20.0321504627       27.5913952714
O         19.4210311988       20.1083492254       28.0368458031
C         20.1198221769       18.5218533936       26.4416587355
H         19.2736864362       17.9262095868       26.8047201158
H         20.9987741994       17.8661246506       26.4341165635
C         19.8320931215       19.0458947721       25.0130867564
H         18.9553234240       19.7076401135       25.0392694319
H         20.6831912528       19.6547807754       24.6808323445
C         19.5832917569       17.8892283611       24.0173800026
H         18.7805472203       17.2487124823       24.4076426220
H         20.4799875317       17.2579570174       23.9508229042
C         19.1821913941       18.3695441547       22.6023975041
H         18.9055911540       17.4916310441       22.0026855591
H         18.2825890520       18.9966929494       22.6680915402
C         20.3046256515       19.1428384254       21.8721189634
H         21.2193119312       18.5346283345       21.8562850265
H         20.5415532225       20.0648565850       22.4186330167
C         19.9012101133       19.5034537758       20.4267972973
H         19.6696173767       18.5869486452       19.8666070221
H         18.9853063151       20.1104510995       20.4387808350
C         21.0197837194       20.2779077210       19.7010329857
H         21.9396928342       19.6810178778       19.6474843404
H         20.7163137304       20.5256257772       18.6755564018
H         21.2498839150       21.2163110281       20.2224184079
    25
VM2 Rank=7      G=-7.018            E=-31.524           -TS=24.506              
C         19.9013208625       19.6124381188       27.4488204877
O         20.8002545776       20.1963118899       28.0212490741
O         18.7231796692       19.8534505843       27.6235623786
C         20.2729639583       18.5316546904       26.4398677833
H         19.4848616898       17.7691900069       26.4515183622
H         21.1962712832       18.0492724091       26.7824514200
C         20.4585806337       19.0861248670       25.0058725792
H         19.5293282658       19.5809308664       24.6941678970
H         21.2440826826       19.8544049872       25.0129487166
C         20.8300748221       17.9692807287       24.0029432703
H         20.0200456814       17.2285707531       23.9560573849
H         21.7168057816       17.4370818934       24.3736693162
C         21.1339058222       18.4948800159       22.5798514012
H         21.9471512739       19.2320583826       22.6258418946
H         21.5067296160       17.6586878006       21.9726624292
C         19.9053231672       19.1171422161       21.8766237469
H         19.5649029675       20.0020150204       22.4298352830
H         19.0758805302       18.3968433334       21.8807775985
C         20.2260959046       19.5244002981       20.4230081335
H         21.0568192047       20.2436396821       20.4149770211
H         20.5601977734       18.6442903463       19.8562513349
C         19.0013005826       20.1483165908       19.7242011452
H         19.2470387772       20.4314133948       18.6924394232
H         18.1643663806       19.4385260597       19.6907679770
H         18.6649787787       21.0502771476       20.2521642844
    25
VM2 Rank=8      G=-7.016            E=-31.516           -TS=24.500              
C         20.3157812089       19.1891415811       27.6664467481
O         21.3533208550       19.6710157682       28.0762563760
O         19.2873821127       19.1554733598       28.3129015817
C         20.2973196789       18.6149452084       26.2543445385
H         19.5887028658       17.7782137794       26.2360646242
H         21.2910552336       18.2030743019       26.0411586133
C         19.9125320424       19.6649309643       25.1830836293
H         18.9215595083       20.0770808898       25.4189790682
H         20.6238236661       20.5016244890       25.2229172612
C         19.9008471163       19.0593858505       23.7626647349
H         19.1871437983       18.2250359183       23.7253099317
H         20.8926154691       18.6441922683       23.5413064500
C         19.5200846331       20.1126813622       22.6967274945
H         18.5614392380       20.5714188629       22.9750434482
H         20.2626113315       20.9223491918       22.6939881576
C         19.3868659525       19.5274026555       21.2705823662
H         18.9948230309       20.3112624366       20.6081859353
H         18.6410903822       18.7207319150       21.2720594492
C         20.7204941144       19.0029173041       20.6918705445
H         21.4817988323       19.7936934161       20.7398275965
H         21.0910346022       18.1640149032       21.2954296313
C         20.5583722857       18.5361059459       19.2311219863
H         20.2249997036       19.3618320976       18.5889496405
H         21.5124495412       18.1637923541       18.8359256565
H         19.8215989759       17.7254585133       19.1576940427
