    22
VM2 Rank=1      G=-16.998           E=-36.566           -TS=19.568              
C         19.8314393165       19.1340704705       26.1874736886
O         20.0586473589       20.2371675255       26.6435270130
O         20.1745608201       18.0997705588       26.7249890194
C         19.0946204520       19.0433641760       24.8559009818
H         18.3980392662       19.8880949751       24.7936987101
H         18.4928216905       18.1265912568       24.8612614556
C         20.0506227945       19.0480813349       23.6376685771
H         20.6548851586       19.9657792233       23.6541319131
H         20.7496251506       18.2043292667       23.7216554442
C         19.2807938571       18.9554994473       22.3025007930
H         18.5821526831       19.7996768154       22.2222570429
H         18.6767985217       18.0377831165       22.2898542324
C         20.2363117001       18.9603014123       21.0899631481
H         20.8405488493       19.8778373324       21.1022808325
H         20.9350907792       18.1162294636       21.1698146835
C         19.4676515732       18.8678800217       19.7551651082
H         18.7690010248       19.7118168674       19.6707003218
H         18.8634394070       17.9502091208       19.7382791738
C         20.4253521276       18.8728650530       18.5468116710
H         21.1157070792       18.0202130831       18.5892542290
H         21.0206051745       19.7950490391       18.5211972662
H         19.8624026900       18.8066541446       17.6067078646
    22
VM2 Rank=2      G=-16.191           E=-35.868           -TS=19.678              
C         19.7290799813       18.8548775419       25.9655439487
O         19.2130009239       19.6429561375       26.7330948892
O         20.5232919562       18.0021843758       26.3099955854
C         19.3783817284       18.9568422842       24.4854128119
H         18.3434153034       19.3100204088       24.4045761313
H         19.4110966462       17.9454531394       24.0649325643
C         20.3291021169       19.9035479959       23.7075898780
H         20.3426483508       20.8805082554       24.2103909564
H         21.3556106410       19.5148331071       23.7576925742
C         19.9204752273       20.1122086556       22.2299964332
H         20.5731421842       20.8804968311       21.7932518481
H         18.8976017234       20.5104525063       22.1838930766
C         20.0179216697       18.8259551500       21.3776276314
H         21.0268515765       18.4008125884       21.4682828594
H         19.3162673795       18.0712533689       21.7558470715
C         19.7076373351       19.1023459056       19.8914525100
H         20.4099786139       19.8506111304       19.4987071234
H         18.6997335419       19.5297509336       19.7970150432
C         19.8011090611       17.8180819536       19.0432863122
H         20.8089927616       17.3857782992       19.0950321345
H         19.5781081255       18.0329238861       17.9901067167
H         19.0856353181       17.0627648206       19.3939808313
    22
VM2 Rank=3      G=-16.125           E=-35.803           -TS=19.677              
C         20.1334415191       19.1302294657       25.9559585086
O         19.6139440347       19.9159989414       26.7235710375
O         20.6477313177       18.0868264035       26.3071297952
C         20.1189921365       19.4611746329       24.4678582052
H         21.0340988971       19.0506689265       24.0264424678
H         20.1665473394       20.5515069357       24.3613751040
C         18.8654223529       18.9068774386       23.7422900040
H         18.8530045143       17.8107044407       23.8169920897
H         17.9680822016       19.2635565341       24.2666988753
C         18.7730090836       19.3309093801       22.2572128482
H         18.7755296837       20.4272811862       22.1868252416
H         17.8054176684       18.9960877750       21.8589066994
C         19.9059714671       18.7497055593       21.3802457724
H         20.8769746367       19.1336666480       21.7188719978
H         19.9349119062       17.6574043665       21.4940144688
C         19.7144329579       19.1070684623       19.8912900194
H         19.6830195141       20.1991650161       19.7738063813
H         18.7486429530       18.7198956876       19.5380484177
C         20.8470551304       18.5302097162       19.0184438095
H         21.8228529944       18.9260850105       19.3290787962
H         20.6948224863       18.7933035132       17.9636072439
H         20.8816500988       17.4353981588       19.0931759688
    22
VM2 Rank=4      G=-16.120           E=-35.794           -TS=19.673              
C         19.9961305777       19.0327906060       25.9874451004
O         20.3224636920       20.0799440058       26.5103669740
O         20.4206228421       17.9475762912       26.3317869699
C         19.0154592950       19.0853437150       24.8213205464
H         18.3318452684       19.9262813390       24.9889894027
H         18.4133525581       18.1689724140       24.8408274564
C         19.7191406883       19.2327524332       23.4496807992
H         20.3246417903       20.1496338207       23.4494252999
H         20.4115414740       18.3914999147       23.3142410747
C         18.7022168400       19.2787819174       22.2857187793
H         17.9736701580       20.0778617155       22.4797596618
H         18.1326088827       18.3398980480       22.2535951538
C         19.3550131383       19.5357060629       20.9068054128
H         18.5570828211       19.6778788443       20.1651724482
H         19.9216064240       20.4764345013       20.9373504505
C         20.2766768063       18.3874417818       20.4374308497
H         19.7248757482       17.4375334676       20.4572982553
H         21.1263551184       18.2792289859       21.1242316195
C         20.8122761202       18.6386631867       19.0134445682
H         21.4671229802       17.8167961938       18.6959868205
H         21.3921834192       19.5699461080       18.9709657731
H         19.9889236422       18.7139871644       18.2911053315
    22
VM2 Rank=5      G=-16.087           E=-35.761           -TS=19.674              
C         19.6003674714       19.0273747002       25.9802301984
O         19.2262460768       20.0648983168       26.4901818041
O         19.1945530651       17.9306221164       26.3102349394
C         20.6206859435       19.1075338640       24.8502502330
H         21.2468331940       18.2081742194       24.8920145877
H         21.2742533256       19.9670081038       25.0420063949
C         19.9631832314       19.2359835204       23.4540105950
H         19.2995959395       18.3759953382       23.2941924583
H         19.3330251492       20.1358114682       23.4313302956
C         21.0197919821       19.3104704046       22.3274692242
H         21.6157114152       18.3875698742       22.3163796841
H         21.7186888116       20.1291233434       22.5472739261
C         20.4103666664       19.5500948942       20.9257733341
H         19.8177211097       20.4750875090       20.9353325036
H         21.2303464026       19.7141621861       20.2132839836
C         19.5376924881       18.3774335578       20.4241754078
H         18.6670668576       18.2459593918       21.0799845348
H         20.1139724000       17.4428303368       20.4644705354
C         19.0471130751       18.6145886256       18.9816742641
H         19.8935986577       18.7124288003       18.2893976010
H         18.4441233009       19.5298517934       18.9177784100
H         18.4265972461       17.7754173338       18.6413491700
    22
VM2 Rank=6      G=-16.037           E=-35.714           -TS=19.677              
C         19.7328927970       19.2233103819       26.0947186201
O         20.1387755479       20.2915285612       26.5077798678
O         19.7907493221       18.1897449479       26.7309986274
C         19.1378469172       19.1728553674       24.6920117619
H         18.6461852435       20.1332693376       24.4957202419
H         18.3586261449       18.4012890930       24.6799251232
C         20.1959034396       18.8809456498       23.5995560358
H         20.9752044008       19.6549772892       23.6329405857
H         20.6879383460       17.9230185354       23.8181614753
C         19.5686060367       18.8350665327       22.1893287957
H         19.0740532965       19.7934630431       21.9842433594
H         18.7915648701       18.0591148648       22.1583217770
C         20.6294199400       18.5471334691       21.1021170335
H         21.3808166380       19.3485745329       21.0964659077
H         21.1631631393       17.6220720436       21.3596310704
C         20.0305139105       18.3899487498       19.6851088863
H         19.2828533882       17.5847692404       19.6853900107
H         20.8277266778       18.0727065393       18.9987818032
C         19.3952920890       19.6884663402       19.1423803716
H         18.5180774714       19.9824000635       19.7321256050
H         19.0661863424       19.5499163902       18.1043961098
H         20.1163031375       20.5160787628       19.1606842925
    22
VM2 Rank=7      G=-16.002           E=-35.679           -TS=19.677              
C         19.7435069522       19.0278655632       26.1022201301
O         19.6870905891       20.1072692728       26.6573438634
O         20.2603303404       18.0442990727       26.5940958020
C         19.1523007705       18.9065298666       24.7022331355
H         18.2944029109       19.5862841132       24.6344961807
H         18.7679964245       17.8864896401       24.5818905962
C         20.1771636418       19.2266687750       23.5862939154
H         20.5619699851       20.2460107611       23.7290426988
H         21.0353461708       18.5461410765       23.6754771602
C         19.5544192223       19.0966763264       22.1792967399
H         18.6982179520       19.7794754088       22.0923568222
H         19.1671710198       18.0776080960       22.0500473172
C         20.5823939233       19.4136847139       21.0688766767
H         21.0119904268       20.4079463423       21.2527916556
H         21.4160037104       18.7000449849       21.1213130547
C         19.9758737292       19.3965897194       19.6465023527
H         20.7369750819       19.7447772984       18.9346561799
H         19.1455993048       20.1139322489       19.5884093017
C         19.4869208311       17.9994166902       19.2071373844
H         20.2930374806       17.2583699643       19.2856203370
H         19.1491070214       18.0219332005       18.1629664719
H         18.6441422855       17.6583325851       19.8212120329
    22
VM2 Rank=8      G=-15.555           E=-35.435           -TS=19.880              
C         19.9959428788       19.0180562654       25.8023072971
O         20.5947240468       19.9816925795       26.2379313078
O         20.3755806457       17.8719075429       25.9401922879
C         18.6863292691       19.2618015619       25.0575718449
H         18.1021950287       19.9781197381       25.6472461832
H         18.1149480220       18.3258225767       25.0383279068
C         18.8715872685       19.8058583572       23.6171983990
H         17.8887737873       20.0806706819       23.2108762663
H         19.4691041605       20.7275557275       23.6503547068
C         19.5430769237       18.7803768938       22.6764153298
H         18.9491323868       17.8563260833       22.6570512379
H         20.5346611686       18.5133115525       23.0673695141
C         19.6887464461       19.3308174922       21.2414082203
H         18.6981178031       19.5959340875       20.8471668374
H         20.2828097713       20.2548252414       21.2616030570
C         20.3599533068       18.3075831850       20.3014531736
H         19.7676246360       17.3823608830       20.2775135349
H         21.3521283956       18.0414416378       20.6916590894
C         20.5040592144       18.8609061221       18.8695221396
H         19.5227408318       19.1061839152       18.4426154686
H         20.9829368139       18.1208928896       18.2151970298
H         21.1191699937       19.7702723342       18.8599138885
