    26
VM2 Rank=1      G=48.261            E=15.909            -TS=32.352              
C         19.9052420576       19.3106543774       18.8162318403
H         20.2945394039       20.3369141828       18.7942564233
H         20.2786888902       18.7894590458       17.9251977069
H         18.8107838950       19.3584959947       18.7447011602
C         20.3457234401       18.5775995448       20.1010414976
H         21.4427189633       18.5157423358       20.1275437707
H         19.9704312751       17.5448508669       20.0783555286
C         19.8326675654       19.2912455397       21.3713904494
H         20.2083395884       20.3237315782       21.3883447436
H         18.7360161267       19.3526283447       21.3392440089
C         20.2719018430       18.5601574857       22.6601694521
H         21.3686241819       18.4989311121       22.6913083380
H         19.8961935415       17.5276669430       22.6421645690
C         19.7582874866       19.2745040098       23.9307797218
H         20.1339547717       20.3071341205       23.9492281085
H         18.6614430202       19.3359449087       23.9000079581
C         20.1968081810       18.5443018077       25.2192687556
H         21.2928323849       18.4854849884       25.2564167655
H         19.8187531846       17.5132652526       25.2071230883
C         19.6802385839       19.2637137151       26.4777028914
H         20.0676220309       20.2858648982       26.5026029008
H         18.5881247145       19.3101805812       26.4530588851
N         20.0901308425       18.5768235197       27.7644153917
H         19.7359452080       19.0719964838       28.5901411342
H         21.1094563375       18.5250166835       27.8621583725
H         19.7327987503       17.6171843555       27.8160694752
    26
VM2 Rank=2      G=48.509            E=16.054            -TS=32.455              
C         20.1408036704       19.6498920139       19.0008440369
H         19.1347359084       20.0853363938       18.9420319598
H         20.8620850980       20.4696395913       19.1148962728
H         20.3477000423       19.1494308438       18.0459714160
C         20.2455606034       18.6516022472       20.1732662722
H         21.2510114495       18.2079322590       20.1855464268
H         19.5369812525       17.8266845507       20.0140402967
C         19.9586346883       19.3310140730       21.5306030390
H         20.6678350868       20.1561761552       21.6841061278
H         18.9536249856       19.7749435647       21.5126617172
C         20.0624807591       18.3343305576       22.7071507753
H         21.0677701082       17.8909295098       22.7245410964
H         19.3536378348       17.5091421958       22.5519326532
C         19.7748026815       19.0142351493       24.0648724102
H         20.4826415914       19.8408145479       24.2124211956
H         18.7683022836       19.4550980347       24.0483761332
C         19.8800795360       18.0150757979       25.2412752461
H         20.8922480962       17.5914034719       25.2861044083
H         19.1958737944       17.1740749098       25.0664599615
C         19.5295085807       18.6544345147       26.5987332440
H         18.5244210940       19.0826092593       26.5553798435
H         19.5389668790       17.8847573148       27.3753119560
N         20.4891294806       19.7484156464       27.0242549763
H         20.2355040748       20.1436980822       27.9362702575
H         20.5021272361       20.5238216617       26.3545440910
H         21.4503976275       19.4013946427       27.1053537596
    26
VM2 Rank=3      G=48.526            E=16.070            -TS=32.455              
C         19.4925602491       19.2223345842       18.9791885522
H         19.4899605876       20.3198786573       18.9540272502
H         19.9156027720       18.8645662182       18.0315149071
H         18.4512220660       18.8790839937       19.0342708607
C         20.3139610571       18.6967986806       20.1755339852
H         21.3571803984       19.0276912153       20.0748859966
H         20.3264846788       17.5980138525       20.1545578370
C         19.7392248716       19.1862503636       21.5232734632
H         19.7266589549       20.2849076506       21.5385943594
H         18.6957696427       18.8551563993       21.6181340696
C         20.5592244838       18.6619467886       22.7237450358
H         21.6026794993       18.9926210950       22.6270871286
H         20.5710860784       17.5632558882       22.7079271303
C         19.9844375671       19.1524499543       24.0718757721
H         19.9753418044       20.2512264515       24.0887193329
H         18.9404566529       18.8234807992       24.1608861421
C         20.8061597848       18.6258658827       25.2722110386
H         21.8554000841       18.9281849319       25.1552610383
H         20.7958302419       17.5277887725       25.2829315926
C         20.2934158389       19.1583077772       26.6242343625
H         20.9605603198       18.8224506608       27.4227860415
H         20.2967587404       20.2516091923       26.6145108377
N         18.8920161477       18.6950459689       26.9709377903
H         18.5861000751       19.0558939980       27.8811843318
H         18.8295929699       17.6728265313       27.0179133104
H         18.2058246541       19.0092418683       26.2778575810
    26
VM2 Rank=4      G=48.731            E=16.280            -TS=32.451              
C         19.7686361871       18.8534098502       18.9896778102
H         20.5472580567       19.5751886926       18.7103416567
H         19.7777971550       18.0440352106       18.2481429102
H         18.7957626310       19.3580563919       18.9257161410
C         20.0121758283       18.2958082732       20.4080858189
H         20.9760216028       17.7682057877       20.4318313223
H         19.2380292628       17.5526496044       20.6454266035
C         20.0041805910       19.4156250877       21.4721871331
H         20.7776471077       20.1571896149       21.2287443444
H         19.0396753246       19.9413176043       21.4434022548
C         20.2481260436       18.8612643593       22.8939996406
H         21.2140380824       18.3381530820       22.9220567890
H         19.4755197376       18.1166404614       23.1278399303
C         20.2382418932       19.9852232808       23.9577834424
H         20.9814753605       20.7472362091       23.6850686979
H         19.2616906747       20.4891880673       23.9558462710
C         20.5521238843       19.4745879703       25.3837251381
H         20.6146833365       20.3341860661       26.0642594893
H         21.5388780026       18.9927084143       25.3943318649
C         19.4900432652       18.4916508300       25.9111495546
H         18.5077251177       18.9716052425       25.9017810003
H         19.4489215293       17.6098621917       25.2666103635
N         19.7674723073       18.0214303484       27.3243914621
H         19.0494134408       17.3684359458       27.6566398276
H         19.7913483567       18.8017936465       27.9889852164
H         20.6679855170       17.5364953861       27.3959669101
    26
VM2 Rank=5      G=48.734            E=16.283            -TS=32.451              
C         20.3709858303       19.2509806766       19.0098841755
H         19.4150923396       18.8294945652       18.6724515966
H         20.2929979541       20.3455215225       18.9761135237
H         21.1451768396       18.9460734437       18.2938499091
C         20.7212310084       18.7633684074       20.4317397272
H         21.6969360689       19.1736453625       20.7276984683
H         20.8257621506       17.6693059797       20.4264832841
C         19.6464405511       19.1797000664       21.4602635108
H         19.5440371662       20.2737593432       21.4604630900
H         18.6727832775       18.7694712611       21.1583781364
C         19.9935105371       18.6930994274       22.8854428665
H         20.9700534938       19.1016979840       23.1778057820
H         20.0931029076       17.5987970306       22.8843761599
C         18.9156215737       19.1127204400       23.9135918301
H         18.8363030637       20.2084214602       23.9415710442
H         17.9365270764       18.7388279758       23.5834224891
C         19.1951413228       18.5794493839       25.3383966157
H         19.2499580006       17.4828285193       25.3179039175
H         18.3493390066       18.8398747706       25.9885869074
C         20.4903954535       19.1515318707       25.9445342165
H         21.3465018363       18.8615313228       25.3299993338
H         20.4355583915       20.2432839529       25.9660567092
N         20.7476737230       18.6681497275       27.3571470578
H         21.6138839450       19.0602489682       27.7422940128
H         20.8363233806       17.6476771117       27.4016933532
H         19.9905634937       18.9334004026       27.9956204060
    26
VM2 Rank=6      G=48.849            E=16.386            -TS=32.463              
C         19.4447773184       18.1621813989       19.5242329375
H         18.4488655238       18.6237810102       19.5137071541
H         19.6602228828       17.8057111146       18.5086287728
H         19.4104407003       17.2842589389       20.1811296342
C         20.5209046411       19.1726019083       19.9822461110
H         20.6012730312       19.9694816046       19.2296995394
H         21.5022544719       18.6788807079       20.0130294041
C         20.2154274517       19.8163863267       21.3562686548
H         20.9650777058       20.5959634753       21.5502084657
H         19.2430728328       20.3263157511       21.3142567043
C         20.2242066764       18.8044479467       22.5271085324
H         21.1784778165       18.2598770757       22.5339138097
H         19.4317579902       18.0584915748       22.3821785351
C         20.0185732686       19.5030001879       23.8903708634
H         20.8118437118       20.2475069420       24.0458503829
H         19.0658117550       20.0506901166       23.8823256573
C         20.0230476200       18.4950028881       25.0607060265
H         20.9757774114       17.9489210037       25.0748987400
H         19.2277895653       17.7522630185       24.9123728860
C         19.8178525678       19.2009697159       26.4125697499
H         20.6168209118       19.9301183968       26.5721556053
H         18.8624814682       19.7326931505       26.4089648538
N         19.8162104558       18.2444096275       27.5874971245
H         19.6781802897       18.7349415792       28.4778835351
H         20.7004873976       17.7310909675       27.6637283476
H         19.0681029468       17.5473660180       27.5118830288
    26
VM2 Rank=7      G=48.890            E=16.427            -TS=32.463              
C         21.1080849913       19.2587998158       19.5798433280
H         21.0760100124       20.3558529074       19.6015545704
H         21.8972631389       18.9237977444       20.2642492615
H         21.3980772356       18.9515000875       18.5667242790
C         19.7359416396       18.6550652754       19.9560193889
H         19.8023140437       17.5580923055       19.9561962752
H         19.0075572706       18.9187457675       19.1764486574
C         19.2007575066       19.1473645608       21.3223779426
H         19.1162976091       20.2427994427       21.3100189196
H         18.1812784556       18.7603203977       21.4572498523
C         20.0722836876       18.7043480860       22.5220197121
H         21.0753962264       19.1424971707       22.4370571122
H         20.1973396348       17.6129439592       22.5011170279
C         19.4480524347       19.1268310838       23.8713088498
H         19.3195990115       20.2181163121       23.8908082805
H         18.4454534043       18.6870382975       23.9668136370
C         20.3176734646       18.6893430675       25.0705253894
H         21.3190588811       19.1315425788       24.9822710896
H         20.4444835765       17.5985459320       25.0570449636
C         19.6868681143       19.1145357784       26.4081809621
H         19.5738458160       20.2017771766       26.4328224448
H         18.6959580628       18.6632730938       26.5078549432
N         20.5113381614       18.7027123322       27.6107244271
H         20.0734980471       18.9954676610       28.4910952406
H         21.4488722316       19.1173353319       27.5915492682
H         20.6319893296       17.6857870420       27.6613358160
    26
VM2 Rank=8      G=48.924            E=16.474            -TS=32.451              
C         20.1862677189       19.7827838803       19.1892263267
H         20.2154869878       18.9014358837       18.5353147398
H         19.1866199188       20.2305279126       19.1152520616
H         20.9113639138       20.5116194897       18.8044207436
C         20.5170864761       19.4031758767       20.6482486218
H         20.5184460694       20.3141173898       21.2612981266
H         21.5326519863       18.9858139152       20.6945453359
C         19.5049924487       18.3791533569       21.2142487353
H         18.4972015385       18.8168831368       21.2168125251
H         19.4619740758       17.5113151140       20.5416739021
C         19.8577430052       17.8796057922       22.6369001034
H         20.8594725947       17.4281341112       22.6300043836
H         19.1590040348       17.0752423544       22.9055169911
C         19.7904844749       18.9867706526       23.7163229041
H         20.5372990199       19.7634005630       23.5050661459
H         18.8055232055       19.4729276108       23.6835366278
C         20.0384102521       18.4224417190       25.1326375847
H         21.0226726871       17.9366881456       25.1698748472
H         19.2896985509       17.6520889168       25.3608243976
C         19.9735822417       19.5297746237       26.1992677300
H         20.7286189775       20.2912478504       25.9858510673
H         18.9893174607       20.0053768537       26.1768347946
N         20.2124333825       19.0152940986       27.6041479941
H         20.1649007839       19.7685939651       28.2989381059
H         21.1354089659       18.5791431794       27.6997294482
H         19.5170509284       18.3131503800       27.8774391398
