    22
VM2 Rank=1      G=-16.998           E=-36.566           -TS=19.568              
C         19.8314393165       19.1340704705       26.1874736886
O         20.0586473589       20.2371675255       26.6435270130
O         20.1745608201       18.0997705588       26.7249890194
C         19.0946204520       19.0433641760       24.8559009818
H         18.3980392662       19.8880949751       24.7936987101
H         18.4928216905       18.1265912568       24.8612614556
C         20.0506227945       19.0480813349       23.6376685771
H         20.6548851586       19.9657792233       23.6541319131
H         20.7496251506       18.2043292667       23.7216554442
C         19.2807938571       18.9554994473       22.3025007930
H         18.5821526831       19.7996768154       22.2222570429
H         18.6767985217       18.0377831165       22.2898542324
C         20.2363117001       18.9603014123       21.0899631481
H         20.8405488493       19.8778373324       21.1022808325
H         20.9350907792       18.1162294636       21.1698146835
C         19.4676515732       18.8678800217       19.7551651082
H         18.7690010248       19.7118168674       19.6707003218
H         18.8634394070       17.9502091208       19.7382791738
C         20.4253521276       18.8728650530       18.5468116710
H         21.1157070792       18.0202130831       18.5892542290
H         21.0206051745       19.7950490391       18.5211972662
H         19.8624026900       18.8066541446       17.6067078646
