    16
VM2 Rank=1      G=30.218            E=15.547            -TS=14.671              
C         19.6971449011       19.0163755540       20.9390803076
H         19.6785494126       19.9332633523       20.3343602286
H         20.1313217179       18.2118180267       20.3293667884
C         18.2981318601       18.6037588419       21.4167849049
H         17.7279901148       19.4984252886       21.7035499871
H         17.7317689700       18.0676419663       20.6431715850
C         18.5585604142       17.7366105832       22.6617127722
H         18.6890231819       16.6896822025       22.3577645746
H         17.7164323817       17.7774495654       23.3651855525
C         19.8755766401       18.2476407313       23.2814880211
H         20.5433304026       17.3965071613       23.4794367545
C         20.5129589503       19.1857075510       22.2344749612
H         20.4511204548       20.2286065401       22.5740000152
H         21.5724446607       18.9477917343       22.0750960980
O         19.6066272342       18.9649067386       24.4804590330
H         19.1943791385       18.3291555104       25.1026474499
    16
VM2 Rank=2      G=30.235            E=15.564            -TS=14.671              
C         19.5321720240       19.3693714779       21.1297842015
H         19.0757879380       20.3345774815       21.3901982842
H         19.9650920213       19.4532778292       20.1236993811
C         18.4764818509       18.2591849876       21.2230394733
H         17.4976282246       18.5804135307       20.8417591507
H         18.8037594805       17.3883829935       20.6380907600
C         18.4312762439       17.8941893335       22.7187054525
H         18.1719112750       16.8379979098       22.8660355693
H         17.6658758262       18.5005268970       23.2219495811
C         19.8271110751       18.2175496313       23.2927740121
H         20.3646619933       17.2856654048       23.5211073796
C         20.5808584303       18.9910948297       22.1912790264
H         21.1015352327       19.8772409191       22.5777531857
H         21.3343294956       18.3306529868       21.7423209598
O         19.7011003758       19.0236097400       24.4584178343
H         20.6111496590       19.2082464563       24.7730085696
    16
VM2 Rank=3      G=30.360            E=15.047            -TS=15.313              
C         19.5851067030       19.3562422967       21.1698998781
H         19.3999969910       20.4294193957       21.3156822156
H         19.9162433209       19.2130903241       20.1321845051
C         18.2992270495       18.5557762541       21.4712122014
H         17.4915095446       19.2416214630       21.7617897269
H         17.9582760140       17.9930740147       20.5913724672
C         18.6385563447       17.6061600271       22.6397672479
H         18.8818920650       16.6109277888       22.2448987646
H         17.8004487030       17.4919791248       23.3401555556
C         19.8852302476       18.1925121942       23.3157764442
H         20.4855861742       17.4116385214       23.8044398816
C         20.6535250416       18.8593912192       22.1668847856
H         21.3047960146       19.6709763101       22.5178545183
H         21.2889442335       18.1081653687       21.6795203693
O         19.4873546135       19.1849180087       24.2504594428
H         18.9644548903       19.8294982037       23.7305990531
