   146
VM2 Rank=1      G=547.799           E=354.410           -TS=193.389             
C         16.1679292763       14.9886271105       20.6231731845
H         15.1072898368       14.8767403239       20.3632651384
O         16.5083822358       16.3640370156       20.9006401682
C         16.5515307582       14.1001706185       21.8338686903
H         16.4226954760       13.0562021087       21.5193829327
O         15.7126057450       14.3438625801       22.9720878559
H         15.8668081416       15.2817752446       23.2506022741
C         18.0413661900       14.3061035327       22.1985537597
H         18.1580104849       15.3311037097       22.5781300464
O         18.4011000382       13.3682372807       23.2190898825
H         17.6246511326       13.3397536468       23.8236748623
C         18.9671458203       14.1424076726       20.9584239337
H         19.1240407101       13.0749478869       20.7532857896
C         18.4115591275       14.8175605971       19.6738662449
H         18.5787822193       15.8980019409       19.7475669232
O         16.9956151907       14.5466438934       19.5285031941
C         19.1229220559       14.3119955776       18.4020225277
H         18.9120266790       13.2425015478       18.2684601575
H         20.2082888384       14.4261130060       18.5259387188
O         18.6805189025       15.0571635992       17.2656495621
H         17.6995897658       14.9938150335       17.2638308489
C         15.0280771162       20.0946699023       21.8072736923
H         14.4251304764       20.9680992589       22.0855149037
O         16.2999028508       20.4815346781       21.2451544659
C         15.2802467855       19.2000933702       23.0472554122
H         14.2986043820       18.8809669243       23.4210829594
O         15.9704825886       19.9185791612       24.0828297176
H         15.8384935336       20.8809340533       23.9044388418
C         16.0849228546       17.9385278854       22.6606614815
H         17.0963507824       18.2589285684       22.3885369267
O         16.1530049466       17.0676525008       23.7925617302
H         16.3896328145       17.6577133843       24.5435389947
C         15.4702126898       17.2018341565       21.4421250902
H         14.6024488895       16.6195060197       21.7795758096
C         15.0527105329       18.1688255282       20.2984010994
H         15.9640966736       18.5249003636       19.8008839838
O         14.3225822138       19.2996110571       20.8319446580
C         14.1690644495       17.4984173130       19.2230608630
H         14.7485574321       16.7101731194       18.7243336680
H         13.9113614197       18.2459045159       18.4608201609
O         12.9816218476       16.9469458205       19.7992917139
H         12.5218386817       17.6907867322       20.2486740241
C         18.5350484830       23.9821509653       20.8505167672
H         18.8957271393       24.9882739301       20.6000130161
O         19.6006938233       23.1317870694       21.3119726011
C         17.4462288902       24.0358859290       21.9520369597
H         16.6145675506       24.6335919099       21.5567277472
O         17.9388084701       24.6572230815       23.1499463659
H         18.7672101639       24.1821026575       23.4141475656
C         16.9075874146       22.6168326318       22.2617208849
H         17.7195650102       22.0362943358       22.7214330921
O         15.8171823353       22.7360225258       23.1822513378
H         16.0982623256       23.4343820472       23.8168752730
C         16.4681137542       21.8848672046       20.9600785481
H         15.5369854146       22.3268364886       20.5809103094
C         17.5497931852       21.9782800048       19.8513911715
H         18.4094200803       21.3647621681       20.1468464871
O         17.9484251685       23.3613336669       19.6875055683
C         17.0422068061       21.4720280807       18.4842202114
H         16.2161626608       22.1112425443       18.1449510411
H         16.6498925154       20.4532788740       18.5981954631
O         18.1085272082       21.4806416506       17.5304385492
H         18.4629525847       22.3978512652       17.5359499824
C         23.5939100183       22.8894097109       22.0646621706
H         24.6654229303       22.9946158435       22.2784901951
O         23.2560920879       21.5507350280       21.6458418235
C         22.7591044129       23.2431282887       23.3197189047
H         22.9398861203       24.3013669272       23.5491796275
O         23.1467671591       22.4421345689       24.4471734040
H         23.7279170434       21.7179363394       24.1059816571
C         21.2521218281       23.0650690829       23.0309939058
H         21.0679439970       21.9920008875       22.9132720298
O         20.4901798118       23.5538105372       24.1386064251
H         20.9388400458       23.1864412213       24.9330794777
C         20.8129721044       23.7851046937       21.7290144884
H         20.6511973930       24.8470796345       21.9575952046
C         21.8234179414       23.6365651794       20.5530713472
H         21.6988940634       22.6330148506       20.1253244535
O         23.1875308060       23.7957284008       21.0192752312
C         21.5939272595       24.6515481570       19.4113505665
H         20.6134305119       24.4628529131       18.9547699331
H         22.3518032693       24.4858130761       18.6339302188
O         21.6633859809       25.9963953972       19.8933764727
H         22.5503390959       26.0966418692       20.3055772115
C         24.8867328860       17.8178622499       20.8887072307
H         25.5254960869       16.9736767031       20.5988398222
O         23.5246424279       17.3931565203       21.1063021315
C         25.4430151265       18.5280299058       22.1557230308
H         26.4459089847       18.8945284990       21.9006959105
O         25.5493188188       17.6390800384       23.2776168793
H         24.6269063880       17.3670799339       23.5151685312
C         24.5732551684       19.7514946836       22.5286861356
H         23.5913589654       19.3814042140       22.8546084988
O         25.1968517900       20.4713222514       23.5965052491
H         25.5177720635       19.7803569379       24.2191000548
C         24.3572586904       20.6873187754       21.3121809391
H         25.2764388644       21.2522209503       21.1065934412
C         23.9506947632       19.9108884802       20.0330251210
H         22.9241229505       19.5486424038       20.1556407104
O         24.8601037612       18.8002289152       19.8316721824
C         23.9963776924       20.7895604981       18.7666168755
H         25.0399526782       21.0419130098       18.5354718579
H         23.4608322348       21.7286528916       18.9540940899
O         23.3891305982       20.0951470103       17.6747378211
H         23.8633625542       19.2380068878       17.5971219944
C         21.2087444889       14.0543920410       21.9497838138
H         20.8290972611       13.0697493495       22.2515221224
O         20.2111887836       14.8137716273       21.2386286300
C         21.6755003812       14.8593714964       23.1921999380
H         22.4727361563       14.2776397278       23.6730489237
O         20.6089092199       15.0640211123       24.1327324020
H         19.9060577344       14.4012888582       23.9279929950
C         22.2609223381       16.2255671755       22.7724363005
H         21.4376555747       16.8269174862       22.3694235590
O         22.8166034576       16.8704617311       23.9227689932
H         22.1325564647       16.7583717500       24.6207698053
C         23.3348048667       16.0785451917       21.6671154986
H         24.2547246233       15.6864024794       22.1199696802
C         22.8764294833       15.1364242014       20.5186111441
H         22.0957877467       15.6493097081       19.9409782221
O         22.3466800331       13.9054177954       21.0734720357
C         24.0095645300       14.7617795617       19.5374221144
H         24.3400834545       15.6666245222       19.0105230574
H         23.6087928024       14.0732614871       18.7814456950
O         25.1117415293       14.1599760312       20.2224529012
H         24.7515058659       13.3715572925       20.6862762855
N         19.2958124428       18.8625321364       16.8799636829
H         18.9451370644       19.8352280113       16.8947295975
H         20.2688430672       18.8910455704       16.5606768425
H         18.7528088585       18.3556531410       16.1743026163
C         19.1650469708       18.2337240481       18.2492828236
H         19.4283805521       17.1755764317       18.1728192889
H         18.1149641266       18.3091628736       18.5438695468
C         20.0510353023       18.9178346115       19.3029056235
H         21.0871813844       18.5739737839       19.1875798955
H         20.0536797628       20.0018121499       19.1264810081
C         19.5451332044       18.6384121164       20.7335883054
H         19.5968359682       17.5637900327       20.9528678515
H         18.4886427852       18.9270982797       20.7968212906
C         20.3507818889       19.4253995525       21.7872772726
H         21.3949550531       19.0883864350       21.7865371216
H         20.3624886277       20.4874496955       21.5133592529
C         19.7633916418       19.2664795076       23.2052963022
H         19.7020745294       18.2089635553       23.4949691927
H         20.3913471421       19.7813931184       23.9438474935
H         18.7556157562       19.6974768230       23.2656496147
