   155
VM2 Rank=1      G=551.298           E=342.585           -TS=208.713             
C         16.2261635486       15.3162911129       21.7193879411
H         15.1584569242       15.1565647349       21.9169665844
O         16.4621574678       16.5883742339       21.0828438072
C         17.0352261004       15.2488249918       23.0414237170
H         16.8651173535       14.2551602883       23.4752463382
O         16.5912790233       16.2493649084       23.9713384547
H         15.6841844601       16.5226007442       23.6960868067
C         18.5517983826       15.4010611663       22.7726120873
H         18.7273498670       16.4306143702       22.4380544907
O         19.2883774397       15.1344763449       23.9747868057
H         20.1361196411       14.7117962393       23.6977780991
C         19.0509352352       14.4638350889       21.6459432396
H         19.1535914207       13.4488072505       22.0531131122
C         18.1047067194       14.4507518893       20.4115790759
H         18.2144724539       15.4069890360       19.8827548520
O         16.7306910397       14.2866319563       20.8427699419
C         18.4164515780       13.3247199635       19.4005260158
H         19.4042884630       13.5047283283       18.9564752276
H         17.6815205196       13.3693006088       18.5856350863
O         18.3837393931       12.0396795689       20.0280311777
H         17.4877728253       11.9478780210       20.4221219023
C         14.6826438766       20.2390048757       20.4871570386
H         14.0780383826       21.1137211120       20.2146322832
O         16.0146073169       20.6166131054       20.8917888850
C         14.0116993788       19.4198077926       21.6183564697
H         13.0585612884       19.0464626985       21.2216069626
O         13.7468311396       20.2205907171       22.7797830383
H         14.6226871406       20.5280184493       23.1260275186
C         14.8825260062       18.1967902037       21.9933159457
H         15.7976672959       18.5689467651       22.4753638816
O         14.1453781877       17.3802592818       22.9101250023
H         13.7050044468       18.0157834396       23.5192478348
C         15.2991036327       17.3696439259       20.7424601347
H         14.4638763857       16.7288354377       20.4297698688
C         15.7280262406       18.2473149917       19.5349049130
H         16.7382169576       18.6310815443       19.7192644171
O         14.8029455555       19.3486453139       19.3591153158
C         15.7597008324       17.4411973609       18.2204568075
H         14.7416392909       17.1140329421       17.9702186654
H         16.3751185101       16.5425975772       18.3625421644
O         16.3032088987       18.2425233616       17.1698815783
H         15.7933336497       19.0829870930       17.1766005582
C         18.4055294645       23.7583939176       22.0528730609
H         18.8338427280       24.7085587810       22.3963204226
O         19.4163488120       22.8831494394       21.5111985499
C         17.6974109153       23.0359378853       23.2258568650
H         16.8948962232       23.6977130013       23.5767762655
O         18.6068103036       22.7822508266       24.3088389170
H         19.3990049813       23.3528626877       24.1607161115
C         17.0577783348       21.7122313923       22.7471280674
H         17.8671465808       21.0248024192       22.4780966827
O         16.2908078866       21.1511840515       23.8164203602
H         16.8652447950       21.2533742281       24.6070808335
C         16.1736891737       21.9159207360       21.4905719048
H         15.2133971272       22.3504578456       21.7986202729
C         16.8491058750       22.8155235556       20.4165779056
H         17.6465433638       22.2333273907       19.9368468643
O         17.4173059086       23.9988089494       21.0295883759
C         15.8804007562       23.2778816569       19.3054825924
H         15.5327456615       22.3997074515       18.7454383436
H         16.4297586450       23.9169092408       18.6012094171
O         14.7650765542       23.9867718710       19.8529281863
H         15.1396008043       24.7425799272       20.3579410357
C         23.5685993790       22.7738133686       21.1744361784
H         24.6212711110       22.9943335479       20.9554809635
O         23.3788720973       21.3982764035       21.5563629512
C         23.0402107403       23.6705007394       22.3258912268
H         23.1388858419       24.7151760390       22.0024963632
O         23.7922778103       23.4708128513       23.5358631558
H         24.6802304460       23.8648548403       23.4001655213
C         21.5396792613       23.3915710712       22.5885505016
H         21.4546947100       22.3710199598       22.9830275766
O         21.0584864094       24.3235574776       23.5630917637
H         21.7659764609       24.3547650981       24.2466215285
C         20.7090595093       23.4751166173       21.2769626416
H         20.6162419562       24.5229334725       20.9613959279
C         21.3597956794       22.6655045691       20.1251451599
H         21.2599962758       21.5944732433       20.3408287355
O         22.7563566566       23.0325195354       20.0106294421
C         20.6918843053       22.9480003145       18.7639393737
H         20.8412131173       24.0029236871       18.4976653449
H         19.6114964581       22.7737947402       18.8461018178
O         21.2466252065       22.0929481247       17.7628928129
H         22.2194606937       22.2219931144       17.8040941460
C         25.2010980966       17.7246246973       21.7844005433
H         25.8724969323       16.8590036884       21.8473672077
O         23.8283272908       17.3281427073       21.5821798936
C         25.2947742483       18.5645451908       23.0815450671
H         26.3245038935       18.9365769594       23.1619772163
O         24.9843916591       17.7774772755       24.2389772494
H         24.8977709818       18.4332020005       24.9672657229
C         24.3502756789       19.7831477495       23.0051036463
H         23.3219315409       19.4049265997       23.0018333248
O         24.5555643862       20.6284628261       24.1435611998
H         24.0657643758       21.4682333267       23.9675846557
C         24.5651618317       20.5971328585       21.7060358140
H         25.4668743411       21.2120240646       21.8267404253
C         24.6909929294       19.7053457752       20.4363819619
H         23.6918638338       19.3298728999       20.1784158348
O         25.5789639163       18.5857428126       20.6891743624
C         25.2326738608       20.4656472955       19.2057282807
H         24.5181101029       21.2501855694       18.9250911636
H         25.2988909863       19.7678003280       18.3602540572
O         26.5142679794       21.0402954262       19.4772635144
H         27.0984559385       20.2962125249       19.7448397200
C         21.3651367883       14.0475922653       20.9489451499
H         20.9521967844       13.0662363994       20.6825115709
O         20.3184753501       15.0033394253       21.2172635298
C         22.3008002602       13.9366988411       22.1830715870
H         23.1081319978       13.2427347830       21.9150038429
O         21.6136381163       13.4302911333       23.3342710772
H         22.2715750865       13.4883179249       24.0634981466
C         22.9443363947       15.3024237464       22.5199079560
H         22.1512329353       15.9755232189       22.8741239398
O         23.9265745746       15.1234837369       23.5470267633
H         24.2425619149       16.0269527938       23.7991613547
C         23.5992488806       15.9420361376       21.2693045674
H         24.5305716360       15.4117467440       21.0294112937
C         22.6703529100       15.9047152330       20.0292376863
H         21.8498298408       16.6150790995       20.1819492627
O         22.1547923881       14.5616025724       19.8552521883
C         23.4115571133       16.2926186787       18.7334530817
H         24.1803011523       15.5393674281       18.5150455627
H         23.9188292035       17.2551711725       18.8777562446
O         22.4822873138       16.3915561061       17.6530974944
H         21.9790945908       15.5474539076       17.6474950643
C         19.7327804352       18.5662128094       19.3884900042
H         18.9086680264       18.7593807195       18.6895835833
H         20.6406212460       19.0170636238       18.9659244420
H         19.8780802942       17.4799226582       19.4389977916
C         19.4161333361       19.1485386185       20.7818647601
H         18.5244048238       18.6506728996       21.1833330157
H         19.1660844617       20.2127116968       20.6780471891
C         20.6042762432       18.9869193576       21.7587176733
H         20.8652657146       17.9247504070       21.8553317341
H         21.4856622765       19.4808393556       21.3318943729
C         20.3273570027       19.5783162741       23.1626573163
H         19.9863827661       20.6163814507       23.0732298222
H         21.2658310945       19.6125274538       23.7294382535
C         19.3025867715       18.7463240228       23.9626560339
H         18.3294048052       18.7412470158       23.4539372261
H         19.6602437752       17.7126475747       23.9962911904
C         19.1215967323       19.2523978186       25.4096953081
H         18.8544394207       20.3162477526       25.3907214206
H         20.0759252475       19.1772591338       25.9472574251
C         18.0302222035       18.4702903656       26.1722463008
H         17.0817852154       18.5991213234       25.6407759674
C         17.8681152940       19.0345879099       27.5920331658
H         17.0596248615       18.5182392816       28.1237636393
H         18.7911902046       18.9161368540       28.1729574119
H         17.6180532204       20.1023576750       27.5597742023
N         18.2930430535       16.9877660350       26.2131089844
H         18.2154784332       16.5690014440       25.2672933430
H         17.6029558052       16.5017692228       26.7901475626
H         19.2248814403       16.7670353945       26.5706405081
