   152
VM2 Rank=1      G=542.258           E=339.291           -TS=202.967             
C         16.2876273431       15.2819652849       20.7596763315
H         15.2541914641       15.0813072549       20.4487818017
O         16.4516101628       16.6367765878       21.2189147841
C         16.7188769548       14.3223057193       21.8990903876
H         16.6221307837       13.2967583305       21.5195852821
O         15.8900551156       14.4785354897       23.0592391486
H         16.3125279438       13.9121360526       23.7437616044
C         18.1992795155       14.5524670272       22.2859840418
H         18.2745126837       15.5483274914       22.7409234069
O         18.5968421580       13.5582174109       23.2371746947
H         19.4252621730       13.8966517429       23.6594802265
C         19.1189611601       14.5206891530       21.0337207321
H         19.1977294600       13.4922714420       20.6562269007
C         18.5741276386       15.4217522569       19.8961224472
H         18.6684910442       16.4730920407       20.1959375502
O         17.1872637428       15.0835215465       19.6485401811
C         19.3441503149       15.2234964049       18.5744631228
H         19.1894940556       14.1977331004       18.2139706183
H         20.4184773995       15.3553686788       18.7554491913
O         18.8962354832       16.1712404753       17.6040226589
H         17.9189082502       16.0802425620       17.5646780770
C         14.5783060094       20.2407516912       21.6262220608
H         13.9205440004       21.1118367777       21.7397020773
O         15.9406013835       20.6247222312       21.3473665372
C         14.5565465864       19.3809159582       22.9125646709
H         13.5355990123       18.9979075063       23.0398618900
O         14.9205729558       20.1530401237       24.0646346480
H         15.0542392086       19.4866241414       24.7758318131
C         15.5072995389       18.1738029821       22.7642663357
H         16.5296455404       18.5644497286       22.7181982478
O         15.3711666492       17.3049456998       23.8949865149
H         15.7038727830       16.4181823780       23.6119891824
C         15.2433357347       17.3805829516       21.4602828826
H         14.3791720580       16.7220613974       21.6217536399
C         15.0067493653       18.2869177446       20.2156052004
H         15.9801688182       18.6759319665       19.8883799711
O         14.1301756313       19.3951556536       20.5462486236
C         14.3848365949       17.5378736032       19.0161978476
H         15.0901188965       16.7735140127       18.6647082845
H         14.2398484917       18.2495555421       18.1923655255
O         13.1391636901       16.9328773868       19.3742808251
H         12.5617975257       17.6603012073       19.6969160207
C         18.4342871711       23.8774097873       20.7963400094
H         18.8784380184       24.8469607096       20.5367868935
O         19.4483176892       22.9084946876       21.1382481315
C         17.4286415922       24.0249843952       21.9703262512
H         16.6412255284       24.7137063308       21.6372452692
O         18.0479941865       24.5594267398       23.1469216971
H         17.3439496886       24.5335070646       23.8338613780
C         16.7622214531       22.6692443475       22.3009239565
H         17.5342211600       22.0006429541       22.7064018635
O         15.7326956850       22.8681507687       23.2767304811
H         15.4593816577       21.9680115866       23.5843249135
C         16.1702128605       22.0077628535       21.0298346546
H         15.2461305461       22.5233048749       20.7356652195
C         17.1561550358       22.0248865114       19.8339454713
H         17.9585942258       21.3046008702       20.0320523972
O         17.6982663466       23.3582939219       19.6692458255
C         16.4701936238       21.6336623832       18.5090945329
H         15.7298763994       22.4000816168       18.2433201297
H         15.9346521097       20.6848827993       18.6417494823
O         17.4482085504       21.4991574604       17.4766703193
H         17.9668530312       22.3338709240       17.4810457127
C         23.4883583873       22.6192385778       22.0521425189
H         24.5271750567       22.7999992602       22.3561961242
O         23.3280167115       21.3198483756       21.4465537486
C         22.5408658779       22.7369644154       23.2730681136
H         22.6271980131       23.7631078768       23.6536969386
O         22.8915962040       21.8228170847       24.3195873658
H         22.1304245473       21.8669822331       24.9402373083
C         21.0723011836       22.5130880570       22.8520523260
H         20.9649092809       21.4743647894       22.5166111430
O         20.2201811321       22.7568267853       23.9773000603
H         19.4150858377       23.2102822925       23.6299239105
C         20.6790587790       23.4354357243       21.6730495063
H         20.5548620484       24.4583880754       22.0536549600
C         21.7387204479       23.4179355026       20.5332017437
H         21.6856676131       22.4448761924       20.0272856538
O         23.0671423705       23.6063882238       21.0856876219
C         21.5161166448       24.5103011203       19.4636273599
H         20.5723529119       24.3110923257       18.9390122650
H         22.3214488307       24.4453599313       18.7197251813
O         21.4880200045       25.8137242764       20.0522670282
H         22.3467845835       25.9249950771       20.5176416566
C         25.2344683852       17.7007137738       21.0299501201
H         25.8892614822       16.8440985172       20.8241043179
O         23.8754379225       17.2883927608       21.2893788331
C         25.7496136126       18.5291191404       22.2331833696
H         26.7271407754       18.9426109538       21.9523265485
O         25.9018713663       17.7277435786       23.4106339421
H         26.1484379023       18.3672657291       24.1165914842
C         24.7947817286       19.7117804653       22.5182143746
H         23.8362257595       19.2979160540       22.8591589340
O         25.3572288737       20.5300672932       23.5498008589
H         24.6018312812       21.0429645884       23.9303415954
C         24.5289467857       20.5512319297       21.2361714184
H         25.3918169056       21.1998977942       21.0340513209
C         24.2595979411       19.6803865942       19.9771881439
H         23.2439713837       19.2737317855       20.0355802840
O         25.2186578295       18.5969556094       19.8993346726
C         24.3656536940       20.5021206033       18.6764791937
H         25.4009870595       20.8444116090       18.5459224990
H         23.7265296978       21.3916529102       18.7580316384
O         23.9535671484       19.7075318278       17.5629602109
H         24.4795887758       18.8785175960       17.6097275931
C         21.3725737600       14.0804781782       21.8734010763
H         20.9066351776       13.1053160381       22.0636380727
O         20.4106386504       15.0465120527       21.3983066448
C         22.0306621392       14.6144210827       23.1679683954
H         22.8058300935       13.8933066828       23.4585262758
O         21.0802610292       14.7338773891       24.2361672922
H         21.5884805666       15.1488179924       24.9675781008
C         22.7209931314       15.9728145713       22.9163581015
H         21.9468013071       16.7183832101       22.7018966827
O         23.4447805282       16.3473611271       24.0932347900
H         24.1889808855       16.9270105532       23.8014647269
C         23.6713172758       15.9216985095       21.6935630624
H         24.6090141037       15.4330266848       21.9909918876
C         23.0451351969       15.1913538690       20.4709826713
H         22.2914877019       15.8547838665       20.0271768813
O         22.4138400061       13.9529750523       20.8821794969
C         24.0742742645       14.8554560393       19.3690864637
H         24.4848044882       15.7906334414       18.9655853246
H         23.5570923860       14.3439279766       18.5462940798
O         25.1283430642       14.0344131702       19.8800334666
H         24.6975740151       13.2319690264       20.2503523554
C         20.2243679327       19.5470886900       19.3829651371
H         21.0824874654       19.3953748833       18.7150480811
H         19.3439241641       19.0996640264       18.9023772641
H         20.0574391371       20.6275626340       19.4704381885
C         20.4900734009       18.9122372913       20.7635883046
H         21.3693325376       19.3899892026       21.2099618877
H         20.7394472310       17.8504679657       20.6304460471
C         19.2775191572       19.0491594789       21.7135207763
H         19.0552502840       20.1095871120       21.8934872880
H         18.3915954522       18.6301373016       21.2184208677
C         19.4880419055       18.3196782352       23.0629081355
H         19.7799514325       17.2800768414       22.8698794569
H         18.5290897021       18.2752607362       23.5928181917
C         20.5360359051       19.0027912758       23.9775015394
H         21.4660420537       19.1703857327       23.4219383526
H         20.1683234594       19.9918077678       24.2797655731
C         20.8738778560       18.1700845616       25.2303360629
H         21.2557843218       17.2001164147       24.8998383027
C         21.9743291652       18.8632942826       26.0482615051
H         22.2590924549       18.2510612120       26.9123978200
H         21.6420700212       19.8425833199       26.4139326132
H         22.8748182944       19.0132995990       25.4387889169
N         19.6674108269       17.8901575323       26.0841280399
H         18.9556985340       17.3714335578       25.5618238020
H         19.9146844586       17.3312877925       26.9052831796
H         19.2395523247       18.7580589847       26.4170867765
