   139
VM2 Rank=1      G=538.064           E=358.998           -TS=179.066             
C         16.2533134186       15.0589864730       20.6091420045
H         15.1891548406       14.9481437334       20.3638945421
O         16.6037806747       16.4423668321       20.8332939440
C         16.6390452159       14.1993778729       21.8411821010
H         16.4659936081       13.1516056221       21.5625804546
O         15.8382454123       14.5060209986       22.9919222242
H         16.0627765651       15.4340333057       23.2558607951
C         18.1421618625       14.3572008682       22.1753261407
H         18.2993492794       15.3802586064       22.5452020408
O         18.4759681509       13.4094269287       23.1960365188
H         17.7039596917       13.4116802919       23.8072189272
C         19.0488467597       14.1547348167       20.9262540975
H         19.1676100819       13.0815591275       20.7260856504
C         18.4844253987       14.8371284974       19.6496114639
H         18.6562388598       15.9149980981       19.7229725807
O         17.0652324609       14.5757166370       19.5200720814
C         19.1765414800       14.3482213920       18.3635211377
H         18.9599892854       13.2821605369       18.2127279123
H         20.2638534069       14.4591546048       18.4740978404
O         18.7163326623       15.1216143097       17.2535816631
H         17.7395285530       15.0077695268       17.2286998314
C         15.0501799922       20.1546544955       21.8325509802
H         14.4239860186       20.9910585036       22.1681444852
O         16.2275011795       20.6163374925       21.1402559578
C         15.4845283303       19.2848178593       23.0412461326
H         14.5669503098       18.9061530933       23.5101735068
O         16.2250763290       20.0465275992       24.0087181616
H         16.0296633890       20.9997985338       23.8403802112
C         16.3220289178       18.0712487079       22.5750211006
H         17.2769723603       18.4473830447       22.1823299011
O         16.5607261153       17.2179407918       23.6986285610
H         16.8690087889       17.8261339997       24.4079445139
C         15.6083772015       17.2843379907       21.4462174500
H         14.7892313893       16.6999182397       21.8854190613
C         15.0505128528       18.2173401233       20.3351885651
H         15.8973953042       18.6191150116       19.7633040485
O         14.3050973297       19.3074764182       20.9318196727
C         14.1158556506       17.4956563529       19.3388706825
H         14.6941267083       16.7420321176       18.7880270662
H         13.7501348610       18.2264901247       18.6051222891
O         13.0167856791       16.8767933051       20.0138614569
H         12.5547117114       17.5937555312       20.5028040307
C         18.4636489261       24.0517018113       20.6876585613
H         18.8832946026       25.0399205794       20.4589676304
O         19.4999612124       23.0967444947       21.0022278728
C         17.4427493184       24.1293173342       21.8530428025
H         16.6083940545       24.7529649969       21.5062206970
O         18.0051438083       24.7304818522       23.0283126428
H         18.7329054920       24.1337595957       23.3369770205
C         16.8806695470       22.7229425851       22.1726137318
H         17.7057738210       22.1057815451       22.5554594704
O         15.8652101691       22.8500257015       23.1747222290
H         16.2042795870       23.5368375241       23.7933785605
C         16.3142723749       22.0354833851       20.8966750086
H         15.3306075878       22.4591132016       20.6541999062
C         17.2476057886       22.1902847494       19.6640534176
H         18.0941637549       21.5083826913       19.7964782987
O         17.7368790397       23.5502359654       19.5472383959
C         16.5549703968       21.8198870903       18.3342137255
H         16.1991790896       20.7825291304       18.3919144749
H         17.2955123394       21.8698563504       17.5247687331
O         15.4621540908       22.7019589415       18.0618848821
H         15.8309662357       23.6125978967       18.1014701170
C         23.4518208772       22.6913271216       22.1625849884
H         24.4814844370       22.8229346017       22.5194291820
O         23.2647724335       21.4051707763       21.5397573493
C         22.4501219724       22.8411527991       23.3372857991
H         22.5707187489       23.8576615727       23.7340180285
O         22.7109882056       21.8968773202       24.3878786886
H         23.5338492646       21.4064706279       24.1442456018
C         20.9916765118       22.6915844414       22.8466457614
H         20.8451509879       21.6498445250       22.5385140493
O         20.1095905931       22.9967374689       23.9303986246
H         20.4745547402       22.4935379881       24.6933013520
C         20.6935553870       23.6070746774       21.6304896139
H         20.5604072717       24.6363334095       21.9892408543
C         21.8200471722       23.5640231164       20.5585848916
H         21.7623535901       22.5981168196       20.0387983678
O         23.1208664719       23.7023948238       21.1866556073
C         21.6900764511       24.6729236431       19.4909446401
H         20.7609463649       24.5183914405       18.9263485004
H         22.5227572105       24.5791658020       18.7810290971
O         21.6922936325       25.9716783307       20.0906772553
H         22.5299635381       26.0378449817       20.6011368846
C         25.0882836624       17.7380573006       21.0107551601
H         25.7511182627       16.8908410390       20.7923386278
O         23.7128689376       17.3129217653       21.1269671485
C         25.5372060330       18.4841889301       22.2966052333
H         26.5406459503       18.8826284872       22.0974903092
O         25.6090826895       17.6159027903       23.4366928814
H         24.6821830961       17.3267084919       23.6320337211
C         24.6033440903       19.6834307242       22.5879184685
H         23.6121806008       19.2880996541       22.8513737615
O         25.1389989036       20.4310975429       23.6847946896
H         25.4568177374       19.7536875343       24.3243163566
C         24.4422418530       20.5979871147       21.3435415589
H         25.3405323926       21.2179600877       21.2217043230
C         24.2097822448       19.8009337062       20.0311507659
H         23.1823838682       19.4160151871       20.0262459446
O         25.1546856743       18.7043652587       19.9411509338
C         24.4027586912       20.6898884577       18.7849654295
H         25.4444722010       21.0351850117       18.7444203204
H         23.7597013062       21.5761347841       18.8693932291
O         24.0719181901       19.9583004544       17.6037127298
H         24.5529240321       19.1033793268       17.6691974774
C         21.2887107670       14.0336782224       21.9425562825
H         20.8871494241       13.0591394832       22.2483698460
O         20.3241923073       14.7855219983       21.1769402417
C         21.7310159774       14.8534373693       23.1861298557
H         22.5066110591       14.2651230481       23.6937151824
O         20.6510434894       15.0851242624       24.1037319489
H         19.9513206288       14.4172607586       23.9065958197
C         22.3548927974       16.2045537501       22.7709459960
H         21.5612393475       16.8247031027       22.3340110184
O         22.8799923244       16.8423477115       23.9391758068
H         22.1582987303       16.7644663482       24.6037922955
C         23.4693661094       16.0168181683       21.7109347594
H         24.3632795991       15.6160488157       22.2065228416
C         23.0365456470       15.0605892323       20.5631423456
H         22.2907733684       15.5753369185       19.9433628027
O         22.4580118458       13.8498148362       21.1146874441
C         24.2034056711       14.6479042230       19.6385288924
H         24.5820657514       15.5397786482       19.1217832910
H         23.8199199057       13.9638093091       18.8697054299
O         25.2560146394       14.0232009892       20.3791028404
H         24.8517245166       13.2519793634       20.8355677253
C         20.2628537905       19.6378396009       20.5764252969
H         19.3621066214       20.0292029249       21.0665487727
H         21.1370011873       19.9219900508       21.1690504897
C         20.3530627538       19.9045589487       19.0384352682
H         19.9087179052       20.8359786219       18.6750632040
H         21.3592134549       19.8146521671       18.6124215742
C         19.4815938689       18.6208702781       18.8836938410
H         18.4034680963       18.7949426447       19.0001229287
C         20.1883610810       18.1299478335       20.1838314821
H         21.1606682042       17.6532116805       20.0160249447
H         19.5961570102       17.5049574402       20.8594145277
O         19.7520852771       17.8763653871       17.7168302028
H         19.3108722601       16.9974980701       17.7782201462
