   139
VM2 Rank=1      G=473.018           E=293.403           -TS=179.615             
C         16.4151048294       15.3532402230       22.1437264435
H         15.3825793207       15.2699612381       22.5052353967
O         16.6307532440       16.5848750130       21.4207363494
C         17.4108400403       15.2946309289       23.3297891064
H         17.2946256194       14.3144502741       23.8097336822
O         17.1097734305       16.3222499847       24.2893206865
H         17.9483514197       16.8303560475       24.4544343460
C         18.8668653592       15.3986724067       22.8096675713
H         18.9967485163       16.3897476021       22.3645224908
O         19.7931714875       15.2341505381       23.8903558100
H         19.8275342759       16.1199690076       24.3407187590
C         19.1546380007       14.3632923345       21.6936878947
H         19.2859583971       13.3734100487       22.1495584095
C         18.0266762918       14.3111207077       20.6243438291
H         18.0926943619       15.2208730818       20.0131051244
O         16.7276855898       14.2517160269       21.2644199456
C         18.1385515617       13.1015461099       19.6699065894
H         19.0632431323       13.1918870761       19.0847553560
H         17.2999559818       13.1330212461       18.9613537398
O         18.1310534598       11.8675263311       20.3934403624
H         17.2986539264       11.8604413941       20.9166023910
C         14.7359298728       20.2422202183       20.7810830703
H         14.0231459289       21.0337098048       20.5179964869
O         16.0469978959       20.7722100904       21.0635004324
C         14.2391764705       19.4722273653       22.0300868697
H         13.2627836642       19.0371681075       21.7800102689
O         14.0901550448       20.3495823573       23.1552843610
H         13.9267060903       19.7485731092       23.9167511249
C         15.1980928966       18.3125261619       22.3902361612
H         16.1498434161       18.7528265697       22.7162740540
O         14.6244477369       17.5554314248       23.4627240345
H         15.3789536069       17.0778263905       23.8887418865
C         15.4758776324       17.4068450212       21.1557628954
H         14.5926384999       16.7915453279       20.9391450375
C         15.8309814775       18.2425093584       19.8955335549
H         16.8264627598       18.6832938148       20.0404756262
O         14.8526794428       19.2932460134       19.7013266538
C         15.8706238022       17.3986205524       18.6021180226
H         16.6190572070       16.6033028191       18.7142174642
H         16.1945543937       18.0409934949       17.7724963907
O         14.5877682034       16.8326858319       18.3181113508
H         13.9536384787       17.5841272624       18.3223122679
C         18.4599536469       24.1092637208       20.7521898786
H         18.9091496756       25.0939373393       20.5698574964
O         19.4697842301       23.1228277026       21.0523237317
C         17.4072528328       24.1803433959       21.8940075392
H         16.6158859803       24.8614367680       21.5558820066
O         17.9781681385       24.7098157884       23.1001485083
H         18.5594175433       23.9999237696       23.4708181310
C         16.7593843513       22.7896459888       22.1292887635
H         17.5248383492       22.1186937010       22.5416781766
O         15.6583641950       22.8938881882       23.0410377036
H         15.2519707595       21.9944245814       23.1022076942
C         16.2395677244       22.1764076143       20.8044156051
H         15.3015535570       22.6798385612       20.5357319147
C         17.2445921496       22.3070912754       19.6273433814
H         18.0645575162       21.5955028210       19.7902654351
O         17.7672224003       23.6589181249       19.5694125169
C         16.6144428384       21.9932352348       18.2521776385
H         16.2615912276       20.9540418653       18.2458746898
H         17.3916249750       22.0789663055       17.4811063156
O         15.5322017246       22.8845088882       17.9659689792
H         15.9003532017       23.7931014675       18.0404454798
C         23.3159449345       22.5569753296       22.4481227481
H         24.3170907674       22.6363657676       22.8899536271
O         23.1685045581       21.3466058621       21.6746588768
C         22.2312858263       22.5786709533       23.5561354795
H         22.3102834021       23.5433842375       24.0735323831
O         22.4525776150       21.5213121803       24.5055841741
H         21.6134344750       20.9899934244       24.5661737195
C         20.8192380845       22.4928977172       22.9268849537
H         20.7237457122       21.5085675916       22.4556995351
O         19.8191957261       22.6466687956       23.9415365339
H         19.7681861553       21.7628439210       24.3929376196
C         20.6141083711       23.5542674491       21.8173953370
H         20.4542682807       24.5336288062       22.2866410966
C         21.8176211875       23.6292898777       20.8361337493
H         21.8008166281       22.7320353865       20.2033327268
O         23.0638118891       23.6792788865       21.5751471321
C         21.7730431792       24.8582367592       19.9010792842
H         20.8938837387       24.7789744757       19.2480414377
H         22.6614438140       24.8422942609       19.2555127467
O         21.7241421594       26.0771557503       20.6482330068
H         22.5148514634       26.0734629086       21.2325524456
C         25.0995820935       17.6991612770       21.1147008205
H         25.8256417888       16.9055199704       20.8987549737
O         23.7628127313       17.1789887353       21.2636668730
C         25.4894221725       18.4375749708       22.4190117907
H         26.4832523759       18.8764845626       22.2613635983
O         25.5459526115       17.5368670868       23.5335402350
H         25.6370654119       18.1229247762       24.3185527901
C         24.5048514590       19.5913236175       22.7229559538
H         23.5234588007       19.1512852911       22.9505087045
O         24.9880952600       20.3165631777       23.8602496904
H         24.2002336531       20.7820250058       24.2363558408
C         24.3439487275       20.5305353064       21.4934528993
H         25.2430724380       21.1503143080       21.3792159233
C         24.1105802130       19.7331173435       20.1801985735
H         23.1022609220       19.3005700551       20.2110646951
O         25.0921180544       18.6746257954       20.0519833016
C         24.2068015000       20.6141302592       18.9149810326
H         23.4596622535       21.4162215640       18.9778842957
H         23.9584261942       20.0003949699       18.0389165120
O         25.5175130750       21.1700565213       18.7744292712
H         26.1397479225       20.4098965464       18.8173479297
C         21.3751146539       13.8425364327       20.7572929158
H         20.9420482555       12.8601403545       20.5294429442
O         20.3462536928       14.8181394596       21.0214008982
C         22.3575482674       13.7533504570       21.9581798712
H         23.1678921636       13.0770497955       21.6574951029
O         21.7139993293       13.2056495736       23.1190530365
H         21.1049282456       13.9070230154       23.4602809897
C         22.9900113730       15.1394879949       22.2557670812
H         22.2027513769       15.8031794658       22.6391533035
O         24.0380506937       15.0111053550       23.2246746651
H         24.4304554550       15.9112153712       23.3427088537
C         23.5822274049       15.7790546216       20.9736185902
H         24.5319495015       15.2787866053       20.7429939307
C         22.6410888427       15.6737607884       19.7431709493
H         21.8088549361       16.3767178363       19.8799127619
O         22.1316330074       14.3209159320       19.6255265156
C         23.3418820941       16.0270552574       18.4126267276
H         23.6964098183       17.0649998900       18.4572162479
H         22.6055174930       15.9671582776       17.6001891719
O         24.4362612099       15.1415695540       18.1561307914
H         24.0643529170       14.2320920986       18.1904496291
C         19.6170990962       18.9916713429       24.0153141358
O         20.1004141452       19.9569149323       24.5777925691
O         19.4072887936       17.9211736447       24.5557974280
C         19.2631524563       19.1272069971       22.5359670331
H         18.9431830775       20.1577094296       22.3481195406
H         18.3934849972       18.4960021159       22.3329068667
C         20.4328181809       18.7443649334       21.5947140464
H         21.2920058403       19.3945144621       21.7980923179
H         20.7635717360       17.7199052467       21.8103613113
C         20.0329327964       18.8578122847       20.1103400457
H         19.7193540347       19.8810083245       19.8685139580
H         20.8776842969       18.5995118089       19.4601628963
H         19.2051431749       18.1758609502       19.8777659955
