   152
VM2 Rank=1      G=595.974           E=393.331           -TS=202.642             
C         16.1240048570       15.0623473760       20.2058771990
H         15.0786902634       14.9641900621       19.8858256215
O         16.4274664738       16.4130458244       20.6212235844
C         16.4681598028       14.0560706798       21.3332911200
H         16.3932221880       13.0512149826       20.8972097426
O         15.5599203056       14.1380950432       22.4407320741
H         15.7238080592       15.0106134510       22.8789067350
C         17.9289653602       14.2612251755       21.7994757465
H         18.0014846523       15.2559470741       22.2588344806
O         18.2402376609       13.2539531023       22.7692061528
H         17.4151587118       13.1435258840       23.2950837986
C         18.9252681874       14.2145915102       20.6020753778
H         19.1027163496       13.1694226490       20.3158456701
C         18.4182642926       14.9961240202       19.3550388169
H         18.5700801261       16.0681015843       19.5268189750
O         17.0112296510       14.7335159182       19.1163213599
C         19.1941888663       14.6107113915       18.0792339007
H         18.9820897842       13.5630200551       17.8271960451
H         20.2720671912       14.6976285420       18.2719099291
O         18.8214453925       15.4736731692       17.0031394324
H         17.8394396855       15.4476774882       16.9599894465
C         15.0298814667       19.9502854737       22.1943907047
H         14.4543801725       20.7682984904       22.6463487207
O         16.2680467204       20.4250028864       21.6264321435
C         15.3456142284       18.8732381348       23.2603406407
H         14.3836051091       18.5080979526       23.6429660676
O         16.1092612310       19.4204545879       24.3490677706
H         16.0000467349       20.4016924396       24.3133929909
C         16.1005316012       17.6774318303       22.6359008672
H         17.1012466807       18.0185504423       22.3523741439
O         16.2101378584       16.6506323602       23.6239080590
H         16.5047522814       17.1206894129       24.4365835933
C         15.4174698967       17.1418590858       21.3495021182
H         14.5654946212       16.5078387757       21.6280186694
C         14.9457989025       18.2818038514       20.4032675994
H         15.8320134815       18.7083129899       19.9156461490
O         14.2611053435       19.3179499172       21.1497999385
C         13.9940698576       17.7918764804       19.2896391280
H         14.5303593518       17.0792133873       18.6490066739
H         13.7132397003       18.6485263647       18.6623882917
O         12.8265754978       17.1765015588       19.8413498359
H         12.4126889582       17.8480343039       20.4282612384
C         18.3885147964       24.0234906225       21.4216476162
H         18.6595673086       25.0781548226       21.2869726548
O         19.5497522604       23.1911326746       21.6079533885
C         17.4896227247       23.8650538380       22.6730531202
H         16.6018186533       24.4927817892       22.5218221293
O         18.1802263273       24.3008299207       23.8554932924
H         19.1486253852       24.1762597011       23.6938414919
C         17.0155329056       22.4014113558       22.8380537608
H         17.8934069870       21.7918493018       23.0801801982
O         16.0742395979       22.3399058914       23.9147234513
H         16.4383516613       22.9472991425       24.5981441133
C         16.3976416268       21.8569658601       21.5203344341
H         15.4242869782       22.3334380713       21.3416818358
C         17.3119583516       22.1323117893       20.2992230417
H         18.2146902677       21.5137478903       20.3812226962
O         17.6573382534       23.5388339111       20.2757745708
C         16.6119195596       21.8000061173       18.9646364566
H         15.8007821258       22.5195750501       18.7901923127
H         16.1607508963       20.8019320841       19.0299466929
O         17.5535758394       21.8294349665       17.8905821111
H         17.9731320591       22.7165215731       17.9042555410
C         23.6405963386       22.9872311173       21.1310442284
H         24.7078588120       23.1428287168       20.9274658354
O         23.3325301497       21.6037057148       21.4015142640
C         23.1809162870       23.8228023805       22.3511813169
H         23.3146528695       24.8830873252       22.1002506594
O         23.9563606445       23.5111184137       23.5190561605
H         24.0371105875       22.5247510205       23.5699154039
C         21.6782946341       23.5743416475       22.6165026210
H         21.5711474906       22.5261340084       22.9159157856
O         21.2184318192       24.4246363940       23.6713336075
H         21.9410267625       24.4151631488       24.3382285260
C         20.8273104702       23.8022443790       21.3413175009
H         20.7431462738       24.8831181333       21.1671452501
C         21.4322689933       23.1251017617       20.0784741146
H         21.2714666337       22.0418053058       20.1381685114
O         22.8497582399       23.4151098115       20.0035461770
C         20.7959038476       23.6345642915       18.7698251476
H         20.9949959983       24.7091906268       18.6620580700
H         19.7100546064       23.4982510561       18.8164714400
O         21.3242517570       22.9112242999       17.6572672707
H         22.3013500650       22.9936306849       17.7196248766
C         24.9563418352       17.7975624777       21.4068813769
H         25.6074299170       16.9147501659       21.3645317766
O         23.5623685731       17.4269444925       21.3205769582
C         25.2090127932       18.6154462241       22.7033543098
H         26.2483624602       18.9667783463       22.6640771306
O         25.0371324744       17.8250166163       23.8885132345
H         24.0852686207       17.5532979415       23.9170103562
C         24.2896917146       19.8585949379       22.7392827168
H         23.2499431364       19.5144865930       22.8079360717
O         24.6090693028       20.6585283277       23.8818819648
H         24.7268996242       20.0178573384       24.6184106502
C         24.4473063483       20.6963517879       21.4462185860
H         25.4081064837       21.2258532336       21.4933971665
C         24.3854569070       19.8280885914       20.1584121482
H         23.3483575736       19.4991252438       20.0118014129
O         25.2478955451       18.6713368412       20.2954983429
C         24.8206143256       20.5903169560       18.8870425180
H         24.1200378282       21.4157785195       18.7063129341
H         24.7527571674       19.9107675012       18.0270192988
O         26.1532257623       21.0942628559       19.0179537932
H         26.7243566568       20.3158512512       19.2030999647
C         21.0438718916       14.1402368433       21.8640463699
H         20.6323459124       13.1601058779       22.1346721445
O         20.1595530503       14.8637857541       20.9820062763
C         21.3107320826       14.9934445422       23.1353279601
H         22.0261106775       14.4351621959       23.7532622642
O         20.1162849110       15.2273958541       23.8983807514
H         19.5091318551       14.4692039119       23.7259332308
C         21.9531046045       16.3462834645       22.7580294453
H         21.2197502940       16.9113515104       22.1733243844
O         22.2712511598       17.0575628391       23.9577237287
H         21.4884913411       16.9141873289       24.5362383757
C         23.2117953261       16.1442073927       21.8804374191
H         24.0155042890       15.7382215244       22.5090600834
C         22.9354783288       15.1780001786       20.6949161835
H         22.2654939627       15.6815525719       19.9850811106
O         22.3062781281       13.9667930669       21.1836120063
C         24.2124595959       14.7680692300       19.9275151715
H         24.6443370209       15.6580428629       19.4506496290
H         23.9346830080       14.0708572132       19.1257322354
O         25.1704864614       14.1639241900       20.8016375153
H         24.7218823037       13.3900472788       21.2095285984
N         19.9361339402       21.0025042140       26.5856921023
H         20.9479037511       20.8533516829       26.7174674222
H         19.5046861844       20.7436979125       27.4863903696
C         19.4095984142       20.0896553487       25.4915938010
H         18.3463550256       20.3066537991       25.3572776909
H         19.5025636681       19.0598036934       25.8456313494
C         20.1437289794       20.2278199788       24.1446037729
H         20.0851412687       21.2683636460       23.8101770710
H         21.2064390765       19.9795744440       24.2682393373
C         19.5083170442       19.3258877675       23.0699717767
H         18.4474340407       19.5826938651       22.9854540127
H         19.5571667515       18.2742253265       23.3855022957
C         20.1786045163       19.4985128017       21.6907518488
H         20.1583582692       20.5563361879       21.4046183651
H         21.2355108399       19.2092199235       21.7535264629
C         19.4695719669       18.6604590192       20.6053642652
H         18.4311103242       19.0005192637       20.4899588231
H         19.4212480189       17.6110138484       20.9239068119
C         20.1931937334       18.7541377906       19.2461487833
H         19.6706012834       18.1570321889       18.4870155888
H         21.2213212311       18.3768762558       19.3208736028
H         20.2308343118       19.7922918357       18.8890180967
C         19.6402002617       22.4656513885       26.2721130775
H         18.5644396643       22.5941875841       26.1332855014
H         19.9816772115       23.0860461579       27.1034642924
H         20.1656864885       22.7557280986       25.3600492146
