   142
VM2 Rank=1      G=549.356           E=365.034           -TS=184.323             
C         16.2804127773       15.1191455518       21.2165333699
H         15.1949968881       14.9578436532       21.1858275468
O         16.6077521764       16.5081772091       21.4240055865
C         16.9317910383       14.2862945508       22.3507060024
H         16.7287412813       13.2291609155       22.1356211294
O         16.3716761852       14.6167465244       23.6312200368
H         16.3956128831       15.6031588986       23.7226658219
C         18.4679834316       14.4805289674       22.3608138714
H         18.6814514260       15.5163574168       22.6500405054
O         19.0541692530       13.5813935769       23.3080842938
H         18.5148484536       13.6823736812       24.1233812058
C         19.0783376038       14.2358029557       20.9586681992
H         19.0957934472       13.1533386823       20.7751311022
C         18.2913877314       14.9539430740       19.8270813001
H         18.4807812220       16.0330986416       19.9027598713
O         16.8734042626       14.6969609879       19.9705511879
C         18.7068332591       14.5022337383       18.4090575489
H         19.7535147636       14.7833359317       18.2349398128
H         18.0975161595       15.0440834550       17.6734328466
O         18.5415473572       13.0903155623       18.2469948075
H         17.5972117808       12.9002913638       18.4434316405
C         14.8925676329       20.2476049148       21.9011539014
H         14.2323148266       21.1072499459       22.0741476610
O         16.1728397736       20.6552410266       21.3764319724
C         15.1085209355       19.4601084113       23.2188175541
H         14.1275397129       19.0790518142       23.5313607333
O         15.6351018272       20.2938655831       24.2626103871
H         15.6633130811       21.2176011285       23.9129289902
C         16.0360640051       18.2475346675       22.9778133238
H         17.0286693268       18.6261283741       22.7053920315
O         16.1208339534       17.4787330187       24.1809047121
H         16.2341898609       18.1501001136       24.8910887015
C         15.5181646813       17.3672360825       21.8144703473
H         14.6534179784       16.7946207614       22.1754566056
C         15.1180390669       18.2040622584       20.5648824694
H         16.0376255865       18.5658127879       20.0858193295
O         14.2962135053       19.3354613093       20.9539531116
C         14.3302276531       17.3920073501       19.5126939323
H         14.9737132690       16.5937503342       19.1197139011
H         14.0796537742       18.0523961119       18.6717586200
O         13.1401798238       16.8332146329       20.0770038348
H         12.6216301902       17.5900664771       20.4303669888
C         18.4179966531       24.0684914675       20.6925747632
H         18.8017802873       25.0529707325       20.3962794713
O         19.4685988569       23.1920606949       21.1496876845
C         17.3922837398       24.2104236368       21.8427974936
H         16.5625242846       24.8247970447       21.4697501367
O         17.9822689228       24.8572347478       22.9817325483
H         18.9075946450       24.5141302706       23.0704472476
C         16.8210601814       22.8277070931       22.2411526338
H         17.6332348100       22.2483090670       22.6985124352
O         15.7674209237       23.0191298201       23.1905362547
H         16.1006217202       23.7189312489       23.7975529998
C         16.3047360971       22.0413716190       21.0042860853
H         15.3452319947       22.4614931903       20.6741749272
C         17.2971282562       22.0811447286       19.8106417648
H         18.1574421184       21.4380982152       20.0332747156
O         17.7361805114       23.4423670845       19.5862792607
C         16.6450763844       21.5800150582       18.5054160449
H         15.8081217412       22.2401281011       18.2409839728
H         16.2375984719       20.5734452177       18.6683155526
O         17.6124005229       21.5513126102       17.4540357922
H         17.9921416285       22.4567263713       17.4108035717
C         23.5910667283       22.7436792100       21.2684895248
H         24.6804980200       22.8588409526       21.1980779192
O         23.2183614881       21.3752748538       21.5290568157
C         22.9999324436       23.6552637826       22.3767188313
H         23.2095154541       24.6935141882       22.0882381215
O         23.6002150164       23.4012846576       23.6554401835
H         23.4357860352       22.4488134817       23.8732411701
C         21.4634696838       23.4832911058       22.4490679741
H         21.2511890142       22.4567283954       22.7734830384
O         20.9189423027       24.4128397995       23.3913789343
H         21.5161708218       24.3668445067       24.1710313935
C         20.8130617349       23.7011784980       21.0600968379
H         20.8324906285       24.7758346446       20.8363101580
C         21.5420053896       22.9192621551       19.9313105329
H         21.3195413535       21.8501869988       20.0485057096
O         22.9734493741       23.1348695898       20.0236478710
C         21.0993273730       23.3389460510       18.5121061896
H         20.0361270477       23.1013417669       18.3831683691
H         21.6575006262       22.7429304524       17.7777920289
O         21.3239697759       24.7347846701       18.2921925033
H         22.2810803700       24.8874135857       18.4564872744
C         24.6560192470       17.6445337003       22.5509195081
H         25.2276478465       16.7747718571       22.8981847948
O         23.4634887731       17.2458189688       21.8448897243
C         24.2592056935       18.5314753798       23.7577968920
H         25.1911102359       18.8776527625       24.2232272260
O         23.5029878659       17.7931678701       24.7285862998
H         22.6919376311       17.4504006586       24.2753445208
C         23.4687204084       19.7760315295       23.2971104657
H         22.5029719732       19.4340122732       22.9070693012
O         23.2633111424       20.6387139093       24.4198332983
H         22.9813394054       20.0419910391       25.1480016282
C         24.2046742632       20.5412720744       22.1693064443
H         25.0174331913       21.1306468830       22.6145035645
C         24.7676784599       19.5958559257       21.0714918328
H         23.9167735442       19.2435975433       20.4768408823
O         25.4516091600       18.4604766232       21.6633821655
C         25.7541380771       20.2924022372       20.1081268473
H         25.2212934145       21.0776037793       19.5554738049
H         26.1074854042       19.5580222631       19.3719554855
O         26.8605505685       20.8542911559       20.8195984255
H         27.2784035863       20.1119603928       21.3105420729
C         21.4520719054       13.9896222545       20.4167035744
H         21.0603857681       13.0855222560       19.9329212905
O         20.4018269089       14.7998690731       20.9796909982
C         22.4413812198       13.6267248215       21.5472656975
H         23.2786772155       13.0850076450       21.0885197967
O         21.8135428249       12.7840287136       22.5269246291
H         20.9544127610       13.2121419997       22.7747145396
C         23.0065054028       14.9045362514       22.2145486152
H         22.1925765981       15.3598476305       22.7916134800
O         24.0708049049       14.5277145785       23.0938247512
H         23.6992691572       13.8124452279       23.6552743342
C         23.5071224577       15.9613490607       21.1859107680
H         24.5271518644       15.7086240644       20.8667801341
C         22.6068604645       16.0884242786       19.9227545763
H         21.7317655374       16.7044637216       20.1687094974
O         22.1841478713       14.7822280271       19.4648521309
C         23.3537482900       16.7445935911       18.7427886991
H         24.1716703461       16.0853043443       18.4223781831
H         23.8011669366       17.6891854962       19.0690545223
O         22.4506037965       16.9823250880       17.6615953814
H         22.0148719049       16.1206205495       17.4782254673
C         19.6849442975       19.7748906629       22.3111885749
H         18.8771183771       20.0390033643       21.6192474747
H         20.5977426347       20.2743140743       21.9628189900
C         19.3478699320       20.2168689550       23.7467597700
H         19.7810384407       21.1933729487       23.9985061963
H         18.2604656024       20.2940614531       23.8614373992
C         19.8733109666       19.0990492763       24.6593451174
H         19.2994042023       19.0327400959       25.5922005278
H         20.9210891955       19.2932155366       24.9154494611
C         19.7627028360       17.8130438894       23.8308924444
H         18.7667485165       17.3748650743       23.9802214907
C         19.9025546173       18.2467017521       22.3601247101
H         20.8958893873       17.9931639194       21.9724602881
H         19.1642207110       17.7255140262       21.7387343998
O         20.7859779538       16.8982487218       24.1960207765
H         20.5615442235       16.5741149129       25.0914711046
