   155
VM2 Rank=1      G=574.077           E=367.048           -TS=207.029             
C         16.3533120241       15.1834616276       21.7413425942
H         15.2780179756       15.0764100030       21.9338854968
O         16.6859031736       16.5156007864       21.2997786651
C         17.1638834061       14.8596247293       23.0216155893
H         16.9555430920       13.8131339576       23.2797819395
O         16.7749331180       15.6985310942       24.1203326504
H         15.9714795134       16.1982802471       23.8353831053
C         18.6813541706       14.9956799750       22.7579606996
H         18.9015430453       16.0541035318       22.5803740997
O         19.3963156865       14.5507625433       23.9135528737
H         18.9280987083       14.9725346965       24.6691909933
C         19.1230945753       14.1949603049       21.5060204928
H         19.1944971039       13.1326824247       21.7754109792
C         18.1596040970       14.3776050217       20.2980558912
H         18.3264861532       15.3785439608       19.8788896200
O         16.7780362205       14.2550983724       20.7214287542
C         18.3997245165       13.3553134741       19.1650385277
H         19.4044644852       13.5104608326       18.7499309030
H         17.6800700754       13.5467096339       18.3578221480
O         18.2654273436       12.0135732313       19.6425361538
H         17.3609746409       11.9452290743       20.0218803155
C         14.8679455682       20.2366230377       20.8256574174
H         14.1913766917       21.0578024326       20.5553392502
O         16.1343889856       20.7233957860       21.3082710343
C         14.2465608872       19.3501727345       21.9347373408
H         13.2993543096       18.9557474419       21.5444569843
O         13.9832525127       20.1152436778       23.1220748806
H         14.7957740056       20.6462650483       23.3213282699
C         15.1647930794       18.1461167207       22.2634723601
H         16.0766042849       18.5336728562       22.7385088823
O         14.4786294997       17.2759700132       23.1694462893
H         14.0372292785       17.8774623353       23.8116183967
C         15.5803687566       17.3811119464       20.9764349504
H         14.7257468268       16.8124047932       20.5861094661
C         16.0849182648       18.3424784855       19.8694103673
H         17.0498554325       18.7617753481       20.1767409362
O         15.1155162441       19.3997589414       19.6766121143
C         16.2771440879       17.6301873682       18.5145898705
H         16.9006681736       16.7385551457       18.6576439018
H         15.3012737750       17.2974970955       18.1364422530
O         16.9043240810       18.5144626333       17.5837170965
H         16.3394651532       19.3162393713       17.5454856792
C         18.3601561996       24.1626850569       21.7536381087
H         18.7514659449       25.1818721296       21.8661051848
O         19.4156220656       23.1968518134       21.5726715847
C         17.5453914826       23.7645673617       23.0087881171
H         16.6922359146       24.4514737266       23.0824009465
O         18.3437708006       23.8734332003       24.1978775177
H         19.2924875549       23.8391782109       23.9183674198
C         16.9930764273       22.3291563493       22.8597281562
H         17.8492765408       21.6454804524       22.8744472142
O         16.1227919191       22.0326359252       23.9562298286
H         16.5990751200       22.3616156680       24.7510871784
C         16.2341031538       22.1437273277       21.5214342505
H         15.2464277636       22.6136733941       21.6196917972
C         16.9917998826       22.7447350563       20.3020570136
H         17.8411169145       22.0888531174       20.0687130095
O         17.4765780633       24.0752592549       20.6165344637
C         16.1250208681       22.8526818160       19.0277988516
H         15.8449738677       21.8444357124       18.6964671375
H         16.7282777961       23.3017391061       18.2273865852
O         14.9527791795       23.6371697116       19.2657269836
H         15.2670640182       24.5143314851       19.5790869347
C         23.4847600419       22.7626788234       20.9510969007
H         24.5450630415       22.8864576578       20.6954484334
O         23.1612970891       21.3780511716       21.1976942568
C         23.1020051223       23.6238652848       22.1858526303
H         23.2690866804       24.6731040754       21.9096015463
O         23.9079091125       23.3169140144       23.3329215543
H         23.7177938737       22.3757936383       23.5761355219
C         21.6001718407       23.4538453001       22.5160307084
H         21.4355990550       22.4149473775       22.8348179699
O         21.2355592656       24.3477248427       23.5720545141
H         21.9687938070       24.2872030752       24.2248161239
C         20.7198066550       23.7242433921       21.2700424303
H         20.6942233435       24.8035893799       21.0690108273
C         21.2332650427       22.9908079393       20.0026843434
H         21.0198473575       21.9215095930       20.1057921203
O         22.6592594013       23.2122162876       19.8550490441
C         20.5476097366       23.4962709289       18.7163645865
H         20.8047122979       24.5521819413       18.5586223900
H         19.4587114316       23.4325117870       18.8349817921
O         20.9605087738       22.7069008189       17.5993568228
H         21.9422315398       22.7258832737       17.6021848460
C         24.8249921260       17.6848724472       22.0729044449
H         25.4725409140       16.8482365031       22.3653254269
O         23.6202327244       17.2243353284       21.4282304534
C         24.4465942971       18.5320334944       23.3160622378
H         25.3825648704       18.9117459106       23.7461441986
O         23.7560042808       17.7502903694       24.3042538442
H         23.8847547835       16.7995972636       24.0685034756
C         23.5750639627       19.7416230209       22.9123658544
H         22.6118004612       19.3478587160       22.5735359465
O         23.3746330822       20.5744933349       24.0576402686
H         23.1561153326       19.9459318962       24.7823943459
C         24.2065985924       20.5527521038       21.7514238055
H         25.0348917399       21.1524474216       22.1515073805
C         24.7233346156       19.6405005264       20.6031471235
H         23.8544107081       19.2338534162       20.0691115330
O         25.5133054098       18.5530067896       21.1472477023
C         25.5947065583       20.3870110450       19.5687591618
H         24.9779722291       21.1373639750       19.0565104661
H         25.9336241020       19.6700458662       18.8089884684
O         26.7170488925       21.0155496447       20.1942804287
H         27.2143453961       20.3012156635       20.6513004557
C         21.4404102092       13.7889414365       20.8015104993
H         21.0351991848       12.8040816862       20.5350986607
O         20.3938070358       14.7362593728       21.0981757599
C         22.3989478945       13.6954871194       22.0154704575
H         23.2494036765       13.0731502660       21.7077281201
O         21.7683298853       13.0856913452       23.1512891062
H         20.9771385153       13.6365683046       23.3798277597
C         22.9436029757       15.0981175952       22.3795304031
H         22.1043635024       15.7041227880       22.7494201165
O         23.9307235841       14.9589528278       23.4072268714
H         23.5672324598       14.2771686036       24.0172997273
C         23.5485820541       15.8143029156       21.1387576845
H         24.5417885014       15.3982585589       20.9226352454
C         22.6718626065       15.6825587863       19.8627685164
H         21.8106611747       16.3568197529       19.9517423985
O         22.2177816469       14.3155804141       19.7069165211
C         23.4590710034       16.0609201963       18.5899548064
H         24.2674913482       15.3340596494       18.4344276198
H         23.9209219646       17.0473877565       18.7297367986
O         22.5856941400       16.0885657044       17.4593647678
H         22.1240705675       15.2216110183       17.4494011564
C         18.6138987155       18.9671260875       24.5308085297
H         18.0733899247       18.0188912533       24.4246459526
H         19.0057423436       19.0174823281       25.5546084345
H         17.8938927104       19.7849803085       24.4042090394
C         19.7606601208       19.0658961218       23.5042187529
H         20.4703124371       18.2427630934       23.6711612662
H         20.3151178681       20.0013784722       23.6646592945
C         19.2332275331       19.0155393329       22.0546617687
H         18.6519067183       18.1007569401       21.9020833019
H         18.5496028199       19.8526479829       21.8809748801
C         20.3774537556       19.0756640624       21.0270638799
H         21.0538262533       18.2247302320       21.1813122815
H         20.9597755388       19.9870350049       21.1998196844
C         19.8593388614       19.0708668186       19.5751083457
H         19.3051643913       18.1412365707       19.3849522027
H         19.1543180635       19.9008437132       19.4284861210
C         21.0174372987       19.1975497934       18.5641148091
H         21.7235553590       18.3721719901       18.7110322252
H         21.5752539597       20.1253029824       18.7482365595
C         20.5074571355       19.1842101281       17.1093050844
H         19.9278150056       18.2688597579       16.9281812689
H         19.8296999122       20.0336958963       16.9488652108
C         21.6759221178       19.2583132082       16.1132228996
H         22.3331953121       18.3952498300       16.2552030903
H         22.2537867566       20.1688683835       16.2928808347
N         21.2203728350       19.2703545547       14.6692396962
H         20.6883238036       18.4261280285       14.4346179705
H         22.0130406078       19.3180507718       14.0204033592
H         20.6175551856       20.0755291254       14.4707441749
