   143
VM2 Rank=1      G=538.532           E=351.358           -TS=187.174             
C         16.4186637938       15.3403580503       21.8291474583
H         15.3653690816       15.2425371461       22.1210909068
O         16.6699276321       16.5870073261       21.1488829278
C         17.3361662003       15.2550366056       23.0761771576
H         17.1673523111       14.2718051110       23.5344538719
O         17.0293355374       16.2801218621       24.0351353949
H         16.1224044658       16.6111365845       23.8270733397
C         18.8241738400       15.3488253343       22.6687491381
H         19.0057194007       16.3625830444       22.2870591064
O         19.6333632072       15.1156546613       23.8251603933
H         19.2307866866       15.6794729459       24.5240579678
C         19.1795305577       14.3387733856       21.5472369132
H         19.2620152455       13.3349380579       21.9843213133
C         18.1318454122       14.3316428721       20.3983868196
H         18.2476706296       15.2589326711       19.8215719251
O         16.7900429094       14.2635694395       20.9423638828
C         18.3059026902       13.1495857905       19.4189042530
H         19.2727659822       13.2483100632       18.9078000700
H         17.5232954179       13.2089382971       18.6506890532
O         18.2362163461       11.8951810034       20.1030055280
H         17.3644287772       11.8766721819       20.5572233753
C         14.8217163926       20.2554678917       20.5711760991
H         14.1609365186       21.0879747546       20.2972400741
O         16.1425325375       20.7204632629       20.9166841940
C         14.2273964766       19.4272053740       21.7423033812
H         13.2749948120       19.0125798279       21.3868851856
O         13.9724628351       20.2321959095       22.9030060239
H         14.8498939163       20.5608997562       23.2244642970
C         15.1539463309       18.2404784134       22.1031874624
H         16.0844304091       18.6503718543       22.5208183835
O         14.4957959571       17.4303546092       23.0837584808
H         14.0541414116       18.0707592405       23.6873038857
C         15.5185835452       17.4002865955       20.8455440472
H         14.6608076116       16.7832075729       20.5463593917
C         15.9370184114       18.2895264597       19.6457871430
H         16.9249820881       18.7131901772       19.8593957146
O         14.9674201965       19.3502410925       19.4568387210
C         16.0345034278       17.4933272299       18.3284941192
H         15.0298252582       17.1748127444       18.0197574552
H         16.6356632106       16.5894882287       18.4939444779
O         16.6432202142       18.3006810846       17.3185586283
H         16.1160718591       19.1289686004       17.2743585524
C         18.4150301598       23.9473337522       22.0283048074
H         18.8456504053       24.8985562610       22.3666334315
O         19.3934160686       23.1184986201       21.3694478074
C         17.8174136152       23.1619963115       23.2234854651
H         17.0047402131       23.7715152622       23.6397811500
O         18.7959313480       22.9187677654       24.2468589002
H         19.5881282807       23.4683061433       24.0312538598
C         17.2189427891       21.8212307106       22.7422808842
H         18.0505288994       21.1875492434       22.4080040469
O         16.5445844602       21.1906748313       23.8352456362
H         17.1751115200       21.2614347330       24.5873847619
C         16.2466443046       22.0100263686       21.5491965347
H         15.2800164408       22.3623342019       21.9326270492
C         16.7818136366       22.9976782525       20.4717708699
H         17.5649107247       22.4851553389       19.8974897053
O         17.3381880313       24.1824374007       21.0967684896
C         15.7010013121       23.4561007508       19.4676638850
H         15.3550359696       22.5870961150       18.8926239277
H         16.1555411541       24.1577896683       18.7554672262
O         14.5990482256       24.0740680400       20.1382917601
H         14.9731036088       24.8264584298       20.6488528165
C         23.4772408696       22.7520543561       20.8783710609
H         24.5424273055       22.8778969579       20.6452707358
O         23.1513681325       21.3648606509       21.1124860957
C         23.0666358632       23.6199257466       22.0998031392
H         23.2472995927       24.6661236769       21.8203177571
O         23.8414003165       23.3176411142       23.2694660746
H         23.6172716001       22.3881429949       23.5282637778
C         21.5571037945       23.4667806138       22.4035759952
H         21.3847185472       22.4384780886       22.7514874083
O         21.1966071357       24.3954411222       23.4319803310
H         21.9487745607       24.3769031813       24.0669259045
C         20.6904677950       23.6972017920       21.1346445115
H         20.6215772481       24.7706876545       20.9134282399
C         21.2501927966       22.9606454746       19.8909277411
H         21.0507004071       21.8914982368       20.0160402270
O         22.6743127524       23.1997952096       19.7668597955
C         20.5775069373       23.4183869945       18.5809797217
H         20.8320760889       24.4691963901       18.3884857705
H         19.4870745632       23.3529682158       18.6910759254
O         21.0078416760       22.5882869052       17.5000811759
H         21.9889946554       22.6353686468       17.4964918705
C         24.7959343501       17.7033069073       22.1514583450
H         25.4304035847       16.8797552207       22.5035435778
O         23.6547642795       17.2188765640       21.4157184586
C         24.3057110572       18.5599433653       23.3487333042
H         25.1989230931       18.9651326975       23.8419483650
O         23.5589531102       17.7809366282       24.2969958333
H         23.7408798355       16.8295700152       24.1036788732
C         23.4460966545       19.7471237509       22.8592625278
H         22.5177471107       19.3374767184       22.4418297111
O         23.1449266620       20.5932053906       23.9730967468
H         22.8533888976       19.9741416669       24.6802282816
C         24.1616801432       20.5561718046       21.7486767433
H         24.9480028207       21.1677334599       22.2102441414
C         24.7850884745       19.6427313196       20.6555603594
H         23.9705056220       19.2167985243       20.0557107739
O         25.5438897984       18.5729074063       21.2743921110
C         25.7285692613       20.3939033084       19.6899746789
H         25.1453091384       21.1283615635       19.1190138975
H         26.1424473208       19.6753790471       18.9698325472
O         26.7836047581       21.0482676994       20.4003016372
H         27.2539489735       20.3472870087       20.9042118250
C         21.4653893916       13.7997919911       20.7891367433
H         21.0506847026       12.8156489280       20.5354259728
O         20.4233005597       14.7833406518       20.9728285406
C         22.3605713048       13.7264345889       22.0549083436
H         23.2075912647       13.0728802254       21.8083950491
O         21.6664839464       13.1720873455       23.1818127440
H         20.9532632107       13.8157793814       23.4225165644
C         22.9264753012       15.1245524260       22.4028378261
H         22.0880474024       15.7593537691       22.7221320450
O         23.8677954921       14.9884588900       23.4732989015
H         23.4664323086       14.3283780680       24.0835052785
C         23.5972710643       15.7988390362       21.1728346007
H         24.5986737493       15.3757737681       21.0166164296
C         22.7790648514       15.6356783301       19.8642087951
H         21.9178920327       16.3108230136       19.9122097676
O         22.3184001926       14.2692211061       19.7234364719
C         23.6118623564       15.9996016367       18.6160910900
H         24.3855317628       15.2357193293       18.4606022012
H         24.1210312834       16.9571467333       18.7895412506
O         22.7657105192       16.1028028158       17.4684563489
H         22.2946736251       15.2419656321       17.4000859634
N         22.0962171125       18.8162420538       16.5586479007
H         22.8503511183       19.4834844676       16.7396162798
H         21.9329019425       18.8087028987       15.5476123084
H         22.4440705440       17.8754872114       16.8113686198
C         20.8368976513       19.1551191090       17.3292342794
H         20.0812554936       18.4075002453       17.0722817252
H         20.4793284499       20.1349118714       16.9990018371
C         21.0529574527       19.1653103264       18.8518618390
H         21.6012433823       18.2655325156       19.1439178994
H         21.6848245418       20.0173078560       19.1276442803
C         19.7096028477       19.2104013969       19.6105756912
H         19.0964889934       18.3533733426       19.2984259398
H         19.1521259615       20.1174489439       19.3355058492
C         19.9013958931       19.1621517874       21.1414003084
H         18.9297894227       19.1155449161       21.6505701670
H         20.4291223611       20.0544271349       21.5028900357
H         20.4773708144       18.2762015583       21.4405870491
