   142
VM2 Rank=1      G=481.270           E=296.545           -TS=184.725             
C         16.4457648814       15.2386450132       21.9323881969
H         15.4128603043       15.0961742502       22.2736589322
O         16.6280613756       16.5309283237       21.3161242251
C         17.4309034890       15.1037020663       23.1223130917
H         17.3223656655       14.0862927570       23.5194232388
O         17.0996592741       16.0408718550       24.1605695344
H         17.9293712818       16.5403122689       24.3885619913
C         18.8961874499       15.2644503303       22.6416490421
H         19.0376752416       16.2957100450       22.2951782789
O         19.7936827588       14.9903575797       23.7245089420
H         19.8137015451       15.8228502611       24.2685572192
C         19.2055526093       14.3213365895       21.4503007624
H         19.3114046072       13.2958869755       21.8272717621
C         18.1024917634       14.3657641963       20.3562205255
H         18.1698604250       15.3315749179       19.8387453943
O         16.7925216628       14.2279553701       20.9613305507
C         18.2496722799       13.2561670005       19.2913245007
H         19.1890470040       13.4088603669       18.7435920285
H         17.4302025943       13.3519479844       18.5665017655
O         18.2333978950       11.9570403118       19.8901366912
H         17.3907581524       11.8966670796       20.3930107267
C         14.6614766409       20.1943370610       21.0533491913
H         13.9446796754       21.0047729005       20.8709607455
O         15.9709479087       20.6965383587       21.3832966726
C         14.1837260043       19.3018402594       22.2246179305
H         13.2101193978       18.8816430785       21.9406840172
O         14.0358034163       20.0629928474       23.4319106080
H         13.8775559915       19.3889825460       24.1306045958
C         15.1605591725       18.1245065771       22.4620674335
H         16.1055572827       18.5401297203       22.8377567516
O         14.5912279698       17.2518150947       23.4449157776
H         15.3542330422       16.7590482846       23.8375594579
C         15.4568641033       17.3549604928       21.1412204571
H         14.5848295637       16.7481498664       20.8637257740
C         15.7871078048       18.3156273823       19.9672834018
H         16.7773336076       18.7592668954       20.1366719787
O         14.7752124338       19.3496555883       19.8892488050
C         15.8098036143       17.5831577908       18.6094870063
H         14.8248255355       17.1349699405       18.4227586014
H         16.5456427722       16.7691676400       18.6504930340
O         16.1496450185       18.4969915997       17.5646972119
H         15.5212060908       19.2473183391       17.6495646279
C         18.3476884882       24.0860184614       21.3934492735
H         18.7380265859       25.1104177540       21.3496166498
O         19.4085300406       23.1134577196       21.4919390828
C         17.4171740453       23.9329823842       22.6227956146
H         16.5976131015       24.6536552288       22.5043144046
O         18.1176004978       24.2120323610       23.8432295281
H         17.4997948659       23.9277494207       24.5538209885
C         16.7991004817       22.5174365779       22.6808927879
H         17.6041263533       21.8048036111       22.9010216202
O         15.8082680578       22.4681442866       23.7148903549
H         15.3446517432       21.5988977152       23.6216318739
C         16.1551877055       22.1222242447       21.3292234012
H         15.2034568454       22.6594693915       21.2241258995
C         17.0716339942       22.4351039080       20.1142468787
H         17.9120705030       21.7283473605       20.1186952070
O         17.5706921220       23.7919310405       20.2133669813
C         16.3526731527       22.3019945268       18.7539247347
H         16.0354981091       21.2608914379       18.6166923689
H         17.0674145984       22.5334393800       17.9529854748
O         15.2235209964       23.1773198639       18.6791994582
H         15.5669030696       24.0811542136       18.8570572993
C         23.5185680012       22.6524880148       21.0860311740
H         24.5885864349       22.7894639589       20.8838979042
O         23.2042922826       21.2659343870       21.3233810639
C         23.0713354683       23.5094268909       22.3030029584
H         23.2684918251       24.5584316298       22.0479271929
O         23.8290082410       23.1707900976       23.4754553296
H         23.5727907027       22.2484189167       23.7270050253
C         21.5454236144       23.3635040820       22.5485067491
H         21.3521691349       22.3372882214       22.8866185465
O         21.0995863141       24.2986738644       23.5392920173
H         20.1264361107       24.1582539596       23.6459700395
C         20.7406618621       23.6055012569       21.2466554006
H         20.7487979191       24.6809807249       21.0257535341
C         21.3190879243       22.8397746529       20.0274417506
H         21.1185365146       21.7680599633       20.1574194518
O         22.7470231995       23.0755927167       19.9429305089
C         20.6988728200       23.2789512280       18.6824197479
H         19.6199226356       23.0808313655       18.7006839934
H         21.1304026773       22.6662813155       17.8797292005
O         20.9422896198       24.6665453452       18.4317060746
H         21.9156796790       24.7875028039       18.4977375217
C         24.9127973416       17.5898964820       22.1052216677
H         25.5491557676       16.7387761361       22.3785272284
O         23.7325543779       17.1681052572       21.3899451390
C         24.4823931575       18.3744888146       23.3712836599
H         25.3938201212       18.7764192195       23.8320976729
O         23.8355721744       17.5002836878       24.3113203335
H         22.9332312339       17.8751277944       24.4997302991
C         23.5828829438       19.5737348212       22.9778396526
H         22.6498452564       19.1726749020       22.5649045716
O         23.2908361107       20.3762199812       24.1284316862
H         22.5850375963       19.8754439614       24.6157349477
C         24.2501429706       20.4492213074       21.8866148331
H         25.0355341896       21.0551040416       22.3573516313
C         24.8548884441       19.6088064561       20.7250202500
H         24.0267241872       19.2165634091       20.1194644755
O         25.6347010745       18.5072941347       21.2560907098
C         25.7715907757       20.4211466655       19.7831728671
H         25.1708398350       21.1805447186       19.2655335538
H         26.1741813781       19.7469608431       19.0153668625
O         26.8381398047       21.0429567020       20.5058289530
H         27.3203602579       20.3184808926       20.9631442210
C         21.4581171955       13.8367398346       20.5638506697
H         21.0333265780       12.8769668649       20.2429590579
O         20.4208092801       14.8025887776       20.8417370573
C         22.3808981655       13.6542475260       21.7989338127
H         23.2151044743       13.0154699600       21.4818468432
O         21.6920227108       12.9997220352       22.8750365457
H         21.0758646968       13.6711039253       23.2609436108
C         22.9765295445       15.0178848741       22.2412021500
H         22.1573650923       15.6379987849       22.6311803644
O         23.9594712605       14.8106809709       23.2625061565
H         23.9930380043       15.6528135800       23.7789947362
C         23.6252697252       15.7732015805       21.0451298662
H         24.6097597242       15.3390774269       20.8255936472
C         22.7668934195       15.7310238338       19.7521226740
H         21.9233056866       16.4240722887       19.8672491125
O         22.2857134490       14.3838809173       19.5172781285
C         23.5780022045       16.1606154309       18.5119895628
H         24.3919787642       15.4424637783       18.3454368844
H         24.0315297234       17.1432638762       18.6983392552
O         22.7252854136       16.2257903099       17.3675021957
H         22.2214623805       15.3813491984       17.3568490952
C         20.1238217033       18.4824553931       24.4191325277
O         21.2854376477       18.5531527085       24.7737225270
O         19.3901513880       17.5549719863       24.7051685394
C         19.5559111639       19.6302836962       23.5869446051
H         20.3094177471       20.4224199690       23.5234889492
H         18.7100327791       20.0425886203       24.1484595488
C         19.0825706596       19.2358031240       22.1631347255
H         18.3382726192       18.4351337777       22.2383201408
H         18.5738840426       20.0938603373       21.7108745291
C         20.2311342243       18.8000507324       21.2302455750
H         20.7585431226       17.9366403838       21.6589865291
H         20.9604860517       19.6147170972       21.1437932379
C         19.7080745221       18.4397063317       19.8258275324
H         20.5374713807       18.1736523544       19.1586508566
H         19.1715147670       19.2852040079       19.3765926481
H         19.0229097694       17.5843525093       19.8736916937
