    17
VM2 Rank=1      G=-29.180           E=-40.000           -TS=10.820              
C         19.7723476452       19.0786512580       25.2791457233
O         19.3186939717       19.9199687828       26.0302033599
O         20.4467231600       18.1426245767       25.6657539429
C         19.4751158554       19.2204141211       23.8280353169
H         18.8675105537       20.0784513350       23.5496538799
C         19.9149661239       18.3608381590       22.8810673362
H         20.5263431519       17.4992146442       23.1486429003
C         19.6099472844       18.5134633871       21.4069869133
H         18.5799748171       18.8707293568       21.2716139343
H         19.6675119641       17.5326450515       20.9159979671
C         20.5928018569       19.4890719734       20.7278668948
H         20.5334428192       20.4721584403       21.2152859386
H         21.6220528050       19.1285207907       20.8628186156
C         20.2944041025       19.6429677418       19.2229405126
H         19.2805832272       20.0321517509       19.0612682235
H         21.0031749995       20.3401724009       18.7574507783
H         20.3781890433       18.6785034608       18.7050416098
    17
VM2 Rank=2      G=-29.145           E=-39.964           -TS=10.820              
C         19.6586476858       19.0430843371       25.2681675334
O         19.4177604772       19.9508190228       26.0399810596
O         19.5761029697       17.8702525412       25.5812925532
C         20.0723973818       19.4073474857       23.8860358494
H         20.1264231564       20.4723115402       23.6719303702
C         20.3693127579       18.5031340653       22.9251374443
H         20.3163378474       17.4336799235       23.1282026929
C         20.7874780806       18.8820077726       21.5212731254
H         21.3815950067       18.0690860997       21.0824435289
H         21.4395078780       19.7656857099       21.5491971501
C         19.5628998218       19.1667099945       20.6277584529
H         18.9134115090       18.2807395504       20.5996899071
H         18.9695462657       19.9826732039       21.0632986321
C         19.9804008253       19.5446447807       19.1923539817
H         20.5488907034       18.7318779738       18.7215469836
H         19.0966424261       19.7433960595       18.5721925827
H         20.6059472872       20.4469311381       19.1898797367
    17
VM2 Rank=3      G=-28.490           E=-39.464           -TS=10.975              
C         19.6118882251       18.9987529521       25.1046287689
O         20.0485281554       20.0911250337       25.4152885642
O         18.9310778765       18.3234411448       25.8517993650
C         19.9135515075       18.4420392595       23.7580925879
H         19.4938850978       17.4616507026       23.5448335609
C         20.6557016904       19.0827974547       22.8266275049
H         21.0781432825       20.0668603444       23.0285213909
C         20.9552937193       18.5115042549       21.4566323915
H         21.1706360101       17.4379720384       21.5442922076
H         21.8649133275       18.9740474513       21.0505052928
C         19.7868874025       18.7142789081       20.4670522347
H         20.0159995556       18.1907393111       19.5286661406
H         18.8754769263       18.2514143094       20.8701845427
C         19.5220714232       20.2040609921       20.1618785829
H         18.7096821089       20.3097997954       19.4312960169
H         19.2311064287       20.7486773263       21.0695974645
H         20.4169641514       20.6847526564       19.7456481498
    17
VM2 Rank=4      G=-28.488           E=-39.460           -TS=10.972              
C         19.5813604003       19.0519586109       25.1000868162
O         19.6100413883       19.8933826507       25.9770101224
O         18.9771881978       18.0017715653       25.2119972162
C         20.3282592022       19.3405950932       23.8459251546
H         20.8470662606       20.2957989640       23.8115078509
C         20.3820800702       18.4975504344       22.7898172973
H         19.8633631771       17.5394152808       22.8123821073
C         21.1414044982       18.7997859549       21.5150264704
H         21.3884447827       17.8632440825       20.9971896694
H         22.1002943946       19.2755199092       21.7614721091
C         20.3483933698       19.7223352470       20.5633990490
H         20.1007253419       20.6608548322       21.0784415402
H         20.9859906352       19.9915146488       19.7100733713
C         19.0562728732       19.0606204436       20.0387378739
H         18.5362233861       19.7294164194       19.3407647293
H         19.2810463439       18.1259036481       19.5087122331
H         18.3666422869       18.8309558499       20.8614682460
    17
VM2 Rank=5      G=-28.468           E=-39.437           -TS=10.969              
C         19.8301902414       19.1916275851       25.0912800230
O         19.3133926253       20.0188995454       25.8167601917
O         20.6961336489       18.4270795694       25.4734524553
C         19.3643161025       19.1286329507       23.6795216393
H         18.5887702802       19.8395979606       23.4042713023
C         19.8515936540       18.2611882173       22.7631803082
H         20.6312841653       17.5479997186       23.0295715973
C         19.3772472505       18.2013695915       21.3259084017
H         18.4118084668       18.7137951338       21.2159592578
H         19.1995975585       17.1532352486       21.0504744172
C         20.4025713860       18.8102113320       20.3444885024
H         21.3693562642       18.2998825380       20.4556211305
H         20.0667056747       18.6253368929       19.3148215919
C         20.5895550914       20.3289912086       20.5474084784
H         19.6359357725       20.8606200913       20.4330775573
H         20.9867714218       20.5492014979       21.5467981662
H         21.2939509918       20.7333058484       19.8090182044
    17
VM2 Rank=6      G=-28.465           E=-39.432           -TS=10.968              
C         19.5892043646       19.1221348898       25.0683825413
O         19.4555369479       20.0594759464       25.8308165055
O         19.2059013940       17.9975746404       25.3308514717
C         20.2568951325       19.3860541620       23.7650753366
H         20.5748365089       20.4120139093       23.5947045076
C         20.4699482369       18.4398404926       22.8222751644
H         20.1514462542       17.4102215174       22.9834031148
C         21.1477416691       18.7121426765       21.4953298167
H         21.8971856835       17.9313979098       21.3088359925
H         21.6985526999       19.6619399743       21.5304650744
C         20.1464292706       18.7362036256       20.3197648005
H         20.7037077456       18.8088625122       19.3756457737
H         19.5932253612       17.7873912865       20.2854115012
C         19.1533429845       19.9145735666       20.4095043632
H         18.4840376187       19.9224881445       19.5395422229
H         18.5317739509       19.8410081934       21.3113337805
H         19.6849198663       20.8746497071       20.4372859187
