   139
FE Rank=1      G=486.207           E=311.104           -TS=175.103              
C         16.2576728793       15.0658324563       21.7914793484
H         15.1918694771       14.9132108988       22.0047125173
O         16.5972714295       16.4640243016       21.7390720834
C         17.1117343373       14.4038776132       22.8971301394
H         16.8998956798       13.3269168943       22.8775930331
O         16.7599673118       14.9320457468       24.1860644624
H         16.4076573634       15.8439733227       24.0360423683
C         18.6204653498       14.5973997325       22.6192053655
H         18.8593340889       15.6618675984       22.7486501959
O         19.3690411375       13.8197794498       23.5592286984
H         19.0184505346       14.0841150911       24.4386973558
C         18.9958814892       14.1833204780       21.1718411666
H         19.0771666157       13.0892032515       21.1269912487
C         17.9867604497       14.6949843388       20.1034677857
H         18.1523605386       15.7735044019       19.9847061143
O         16.6173742429       14.4714848793       20.5282370781
C         18.1807555184       14.0512034203       18.7100438150
H         19.1169605808       14.4308085073       18.2785637513
H         17.3629150207       14.3799571632       18.0547824546
O         18.2214991631       12.6203969355       18.7773766364
H         18.2696804874       12.2798663531       17.8574940082
C         14.8126085475       20.2169169059       21.4060996093
H         14.0931876519       21.0327015501       21.2612229095
O         16.1506414339       20.7125619565       21.6005467661
C         14.4360661585       19.4045574392       22.6702473279
H         13.4236391056       19.0075409623       22.5204412982
O         14.4476747890       20.2503916887       23.8316719403
H         15.1579269463       20.9254005229       23.6898346218
C         15.3968732201       18.2069498457       22.8623934207
H         16.3955355098       18.5993945946       23.0993456620
O         14.9312201454       17.3867448920       23.9390845376
H         14.7052734234       18.0167947715       24.6594666722
C         15.4967490268       17.3715859075       21.5635345869
H         14.5453481217       16.8453373648       21.4102448425
C         15.7924266079       18.2579967409       20.3225485240
H         16.7926359120       18.6890537820       20.4396019412
O         14.8164066987       19.3291910573       20.2653533176
C         15.7921195913       17.5029759556       18.9679343073
H         16.8078769595       17.1342779447       18.7768426779
H         15.5595970228       18.2186522042       18.1682278948
O         14.8709441496       16.4067479115       18.9291843006
H         15.2822759384       15.6674256683       19.4347268013
C         18.5107285458       24.0757948520       20.8500697026
H         18.8584439783       25.0760367511       20.5642808947
O         19.6060216781       23.1984951238       21.1747727412
C         17.5767682359       24.1608971302       22.0852982559
H         16.7183655308       24.7841511833       21.8027949535
O         18.2433478271       24.7676771217       23.2029352640
H         19.1621458461       24.3976322221       23.2381386416
C         17.0384918515       22.7593986436       22.4621596307
H         17.8822816852       22.1375976141       22.7948181750
O         16.0760292782       22.8829017096       23.5155550580
H         16.4920908471       23.4881599106       24.1692198172
C         16.3853413761       22.0833754375       21.2333364762
H         15.4524877844       22.6156458784       21.0062828984
C         17.3176419658       22.1160821859       19.9903289826
H         18.1864516105       21.4781036675       20.1964772188
O         17.7659107035       23.4770652774       19.7675159040
C         16.6662660243       21.5991435460       18.6823466848
H         16.7087440059       20.5035389033       18.6775855351
H         17.2691558672       21.9461476894       17.8327066867
O         15.3063486826       22.0197377841       18.5268271108
H         14.7475627271       21.3331803410       18.9534288556
C         23.7240644518       22.7830822762       21.1368825679
H         24.8118675716       22.9013229875       21.0515581534
O         23.3568813683       21.3924413513       21.2581266661
C         23.1618466149       23.5998185435       22.3322363929
H         23.3553840902       24.6577580505       22.1118814480
O         23.8041905499       23.2704701674       23.5725793591
H         23.5394989522       22.3410702976       23.7900431438
C         21.6285695704       23.4151226874       22.4379728125
H         21.4161489977       22.3648190984       22.6832445826
O         21.1219690296       24.2693474093       23.4685077922
H         21.7307661254       24.1415398560       24.2297880290
C         20.9351274370       23.7475493930       21.0931799560
H         20.9266492636       24.8383873016       20.9726834508
C         21.6432323260       23.0875065550       19.8746512100
H         21.4400661309       22.0102124699       19.9025038542
O         23.0773553010       23.2971188527       19.9519582612
C         21.1423649533       23.6006519927       18.5025945419
H         20.1216340941       23.2294360738       18.3381446513
H         21.7746337767       23.1611567918       17.7197989972
O         21.1660057857       25.0304367769       18.4038982069
H         20.3326682402       25.3713523301       18.7903529607
C         24.5596282916       17.6282838613       22.4326674203
H         25.0543908340       16.7340303067       22.8285023246
O         23.4231234280       17.3010731202       21.6074844707
C         24.0650126964       18.5249602327       23.5942615190
H         24.9507823890       18.8776510004       24.1375468389
O         23.2340009932       17.7801202441       24.4986603485
H         22.3436573861       17.6681461615       24.0646418349
C         23.3305064465       19.7603977500       23.0182008179
H         22.4664762928       19.4046111203       22.4507612327
O         22.8708018372       20.6153526067       24.0699209503
H         21.9472060746       20.2932508900       24.2570846637
C         24.2305537042       20.5323989586       22.0205527693
H         24.9870351948       21.0961080976       22.5817030682
C         24.9195325637       19.5860236560       20.9935536915
H         24.1534273817       19.2571408675       20.2812473712
O         25.4806103584       18.4163674614       21.6459588110
C         26.0357984713       20.2761646269       20.1740779205
H         25.5687103270       20.9922454914       19.4844346561
H         26.5422775635       19.5173541307       19.5626868583
O         26.9807927307       20.9541171083       21.0113934770
H         27.6963552476       21.2998416744       20.4341775210
C         21.2838070391       14.0472171787       20.2673509979
H         20.8809405213       13.1509499841       19.7783122721
O         20.2457342095       14.8327164531       20.8832551723
C         22.3325577898       13.6801016699       21.3458005179
H         23.1598802888       13.1768202268       20.8286910998
O         21.7876804324       12.7844864916       22.3271439301
H         20.9943985086       13.2303277959       22.7200582445
C         22.9044746120       14.9523697591       22.0237958750
H         22.1083260079       15.4088474597       22.6300564687
O         23.9927623618       14.5502761824       22.8625686525
H         23.6403643034       13.8089431661       23.4023352718
C         23.3798039544       16.0063990776       20.9792919471
H         24.3646653312       15.7150093265       20.5940999833
C         22.3805773551       16.1733929964       19.7982917485
H         21.5025516519       16.7112349979       20.1777806570
O         21.9579438649       14.8805269993       19.3021426718
C         22.9275678590       17.0090344509       18.6144157661
H         22.8916431258       18.0701931495       18.8918890809
H         22.2517380614       16.8821581339       17.7583398270
O         24.2640717667       16.6471346448       18.2447317294
H         24.8569501633       16.9199476137       18.9771088582
C         20.1073135655       18.5866608740       23.0960915910
O         20.6617922101       17.5616680815       23.4406180694
O         20.2030647699       19.6350010559       23.7066951648
C         19.4105769295       18.5939923817       21.7384596282
H         18.4456256742       19.0934924549       21.8661090952
H         19.2105133184       17.5544860216       21.4569758742
C         20.2309498312       19.2940964139       20.6279978666
H         20.2635969452       20.3703042681       20.8381517084
H         21.2672736374       18.9374663581       20.6554190506
C         19.6506227365       19.0362355554       19.2229719824
H         18.6148723678       19.3812248776       19.1554120192
H         20.2371059701       19.5646098259       18.4605570131
H         19.6684902356       17.9649888631       18.9842062595
