    17
VM2 Rank=1      G=-29.184           E=-40.004           -TS=10.820              
C         19.7723508834       19.0786532753       25.2791339067
O         19.3187103925       19.9199777646       26.0301915585
O         20.4467413749       18.1426355182       25.6657391211
C         19.4750896893       19.2203965300       23.8280285007
H         18.8674693760       20.0784233649       23.5496458783
C         19.9149486602       18.3608233617       22.8810619618
H         20.5263507927       17.4992165593       23.1486346711
C         19.6099341659       18.5134505526       21.4069831952
H         18.5799554915       18.8706967244       21.2716009166
H         19.6675280362       17.5326377880       20.9159869086
C         20.5927798462       19.4890918034       20.7279000705
H         20.5333597834       20.4721768363       21.2153146808
H         21.6220386771       19.1285804477       20.8628994997
C         20.2944449875       19.6429711943       19.2229616856
H         21.0031655878       20.3402601327       18.7575222785
H         20.3783677669       18.6785212870       18.7050585353
H         19.2805899858       20.0320453184       19.0612387359
    17
VM2 Rank=2      G=-29.143           E=-39.962           -TS=10.819              
C         19.6586520869       19.0430841863       25.2681644837
O         19.4177743669       19.9508196459       26.0399795400
O         19.5760635132       17.8702521541       25.5812742548
C         20.0724306987       19.4073478111       23.8860416937
H         20.1264976779       20.4723125995       23.6719486074
C         20.3693089085       18.5031319021       22.9251350743
H         20.3162886782       17.4336777196       23.1281855653
C         20.7874771439       18.8820071495       21.5212743574
H         21.3815945545       18.0690886337       21.0824412428
H         21.4395049678       19.7656853853       21.5492059315
C         19.5628970913       19.1667201433       20.6277690224
H         18.9133899708       18.2807635265       20.5997108797
H         18.9695667237       19.9826980012       21.0633127831
C         19.9803961906       19.5446370078       19.1923615736
H         20.5488031604       18.7318264564       18.7215310588
H         19.0966399644       19.7434719594       18.5722253357
H         20.6060218218       20.4468680284       19.1898874507
    17
VM2 Rank=3      G=-28.490           E=-39.464           -TS=10.974              
C         19.6119907061       18.9988038225       25.1047409120
O         20.0487047912       20.0912125763       25.4151653159
O         18.9313113979       18.3236079037       25.8521353274
C         19.9134008936       18.4418935524       23.7582285087
H         19.4936534763       17.4614964095       23.5451706318
C         20.6554328380       19.0824936404       22.8265608016
H         21.0779541765       20.0665617777       23.0282621481
C         20.9547817813       18.5110114644       21.4565931696
H         21.1694510941       17.4373457475       21.5442635718
H         21.8647201201       18.9729903344       21.0505390130
C         19.7865752973       18.7145165939       20.4669303864
H         20.0153866453       18.1907620246       19.5285917713
H         18.8748262012       18.2522986857       20.8700384183
C         19.5228022945       20.2044604464       20.1616455785
H         19.2321993626       20.7493454896       21.0693185690
H         20.4180389833       20.6844975469       19.7453988415
H         18.7105027442       20.3107115364       19.4310385594
    17
VM2 Rank=4      G=-28.489           E=-39.461           -TS=10.972              
C         19.5813639171       19.0519750595       25.1000867709
O         19.6100730266       19.8934180783       25.9769906806
O         18.9772011196       18.0017875764       25.2120435662
C         20.3282338469       19.3405784542       23.8459001093
H         20.8470495351       20.2957765517       23.8114497764
C         20.3820330501       18.4975040556       22.7898149113
H         19.8633099693       17.5393732384       22.8124164159
C         21.1413743318       18.7996768882       21.5150188347
H         21.3883165730       17.8631117380       20.9971772800
H         22.1003145144       19.2753087744       21.7614645599
C         20.3484641652       19.7223108104       20.5633900107
H         20.1009227448       20.6608729417       21.0784160227
H         20.9860856384       19.9913899371       19.7100509440
C         19.0562565427       19.0607490775       20.0387551163
H         18.3665815498       18.8312448447       20.8614923632
H         18.5363163086       19.7295693048       19.3407233145
H         19.2809017911       18.1259604967       19.5088026611
    17
VM2 Rank=5      G=-28.468           E=-39.436           -TS=10.967              
C         19.5891799303       19.1220994529       25.0684173912
O         19.4555010523       20.0593768806       25.8309274435
O         19.2058922677       17.9975135500       25.3307980544
C         20.2568676317       19.3861276889       23.7651308590
H         20.5747613168       20.4121122368       23.5948260014
C         20.4699819642       18.4399758179       22.8222819916
H         20.1515422775       17.4103303891       22.9833577781
C         21.1477916601       18.7123765022       21.4953655317
H         21.8974209058       17.9317912369       21.3089514915
H         21.6983881958       19.6622973130       21.5304970365
C         20.1465487346       18.7361702503       20.3197365680
H         20.7038738361       18.8088726024       19.3756488139
H         19.5935270443       17.7872515978       20.2854038546
C         19.1532367591       19.9143598572       20.4093421607
H         19.6846323482       20.8745362829       20.4371087532
H         18.4839868593       19.9221055163       19.5393363125
H         18.5316217269       19.8407289696       21.3111333818
    17
VM2 Rank=6      G=-28.468           E=-39.437           -TS=10.969              
C         19.8301980357       19.1916118807       25.0913231508
O         19.3133620195       20.0188111313       25.8168597543
O         20.6961952497       18.4270969401       25.4734387003
C         19.3642878465       19.1286545824       23.6795738264
H         18.5886801097       19.8395747712       23.4043837667
C         19.8515870969       18.2612793670       22.7631770181
H         20.6313343076       17.5481308576       23.0295117563
C         19.3771701084       18.2014719703       21.3259260713
H         18.4117899045       18.7140142374       21.2159969948
H         19.1993781679       17.1533486735       21.0505386689
C         20.4025229116       18.8101509202       20.3444351229
H         21.3692583393       18.2997241474       20.4555539179
H         20.0665948644       18.6252565539       19.3147914223
C         20.5896767316       20.3289232079       20.5472663557
H         21.2941140578       20.7331094552       19.8088446535
H         19.6361168126       20.8606549462       20.4329096494
H         20.9869241422       20.5491520956       21.5466403639
