    29
VM2 Rank=1      G=58.147            E=20.963            -TS=37.184              
C         19.9950105024       18.9911980105       18.8122415980
H         19.4251499785       19.2142936378       17.9009019984
H         20.8995586464       19.6132874443       18.8049974851
H         20.3035174542       17.9385354680       18.7677262992
C         19.1426252938       19.2665956971       20.0689969357
H         18.2297601432       18.6557220673       20.0314428732
H         18.8211947993       20.3175864010       20.0684113539
C         19.9220257548       18.9603457828       21.3669507139
H         20.2431799052       17.9095150693       21.3619917478
H         20.8346343561       19.5715150777       21.3989806621
C         19.0716829611       19.2348950603       22.6277292143
H         18.1591483761       18.6236314932       22.5948078169
H         18.7506840206       20.2857946016       22.6318312442
C         19.8517892930       18.9283507864       23.9259829006
H         20.1729624159       17.8774791573       23.9213759202
H         20.7643259496       19.5396799413       23.9585144915
C         19.0012452745       19.2027697209       25.1866991956
H         18.0885365866       18.5914575677       25.1546466462
H         18.6799133674       20.2537155269       25.1918107551
C         19.7802762186       18.8965883049       26.4846644179
H         20.0987563560       17.8455487429       26.4857717223
H         20.6907111911       19.5095737600       26.5230217300
C         18.9244426921       19.1730877809       27.7331644697
H         18.0245375345       18.5526212279       27.7075915196
H         18.6187395853       20.2227862738       27.7450291247
N         19.6549020098       18.8841688564       29.0285705543
H         20.4995250513       19.4573343595       29.1268056807
H         19.9465644694       17.9031119941       29.0919679084
H         19.0673836970       19.0748309238       29.8478589985
    29
VM2 Rank=2      G=58.385            E=21.096            -TS=37.288              
C         19.8614646718       19.1636553973       18.8953927461
H         20.9424251499       19.3553121037       18.8885001327
H         19.7033374904       18.0904050240       18.7269095865
H         19.4174699794       19.7064724817       18.0508393536
C         19.2266713074       19.6152925677       20.2276462556
H         18.1418968799       19.4424577735       20.1917161118
H         19.3714454835       20.6976294511       20.3520748324
C         19.8344839122       18.8657861158       21.4337739315
H         19.6894680251       17.7843528194       21.3038464330
H         20.9190274281       19.0396782419       21.4643308365
C         19.2012091172       19.3152544202       22.7697931472
H         18.1166935684       19.1412341661       22.7383967850
H         19.3463190680       20.3967966337       22.8987668944
C         19.8096294452       18.5651388967       23.9761105572
H         19.6651541642       17.4836332283       23.8459305915
H         20.8940910080       18.7396477346       24.0075888319
C         19.1758128352       19.0139776947       25.3120933307
H         18.0917076883       18.8366637638       25.2816667200
H         19.3188297181       20.0959001426       25.4346589837
C         19.7867880270       18.2625426833       26.5183641639
H         19.6721620643       17.1806581045       26.3688260328
H         20.8657999808       18.4583412634       26.5766377507
C         19.1220045498       18.6429781682       27.8552739578
H         19.5349971774       18.0226230323       28.6553644998
H         18.0464595738       18.4549451686       27.7983110493
N         19.3259361341       20.0933740562       28.2465519099
H         20.3201840310       20.3263838444       28.3387233588
H         18.8821391292       20.3112148091       29.1455589010
H         18.9275339555       20.7330595273       27.5520476605
    29
VM2 Rank=3      G=58.421            E=21.133            -TS=37.288              
C         19.7817276319       18.9383858348       18.8904582504
H         19.1067408530       18.8313522821       18.0313959807
H         20.3389358031       19.8761683663       18.7666033993
H         20.4991159380       18.1078762623       18.8610652205
C         18.9855210496       18.9368935320       20.2125366769
H         18.4128247968       18.0022441281       20.2921871266
H         18.2539222771       19.7569322820       20.1984745612
C         19.9128985088       19.0863704262       21.4387361660
H         20.6438158225       18.2659476360       21.4473057218
H         20.4848149694       20.0207563726       21.3536346624
C         19.1192070157       19.0852156370       22.7646557706
H         18.5473279952       18.1507095284       22.8487740752
H         18.3883895073       19.9057402476       22.7552790557
C         20.0474465059       19.2347306154       23.9910602599
H         20.7780569891       18.4139863333       24.0003498799
H         20.6196467687       20.1689702149       23.9058625034
C         19.2537842325       19.2339943807       25.3170038885
H         18.6802055296       18.3007048615       25.3945117633
H         18.5252853703       20.0567189008       25.3089668607
C         20.1848823999       19.3826660691       26.5433750670
H         20.8975565469       18.5478790918       26.5783926823
H         20.7806303862       20.2992328782       26.4386620780
C         19.4104010747       19.4539455211       27.8734460243
H         18.6954446564       20.2804289306       27.8393911160
H         20.1109192439       19.6421870309       28.6916080453
N         18.6481315809       18.1857979836       28.2037278964
H         18.1538114220       18.2610880489       29.0996078657
H         19.2711602218       17.3743490016       28.2723118238
H         17.9452580456       17.9691621643       27.4900799730
    29
VM2 Rank=4      G=58.653            E=21.369            -TS=37.283              
C         20.2027088261       18.4715599523       19.1139554852
H         19.7631994746       18.6166671602       18.1185522189
H         21.1936899734       18.9440019701       19.1170573478
H         20.3374674948       17.3931149769       19.2690337454
C         19.2951453432       19.0794592694       20.2041937196
H         18.3019195299       18.6115700475       20.1544052265
H         19.1516150274       20.1504757605       20.0036385537
C         19.8912913288       18.8886427552       21.6163229913
H         20.0351359384       17.8168696741       21.8112909040
H         20.8847913285       19.3559760511       21.6606550133
C         18.9851735765       19.4961058279       22.7108617733
H         17.9919458254       19.0281825942       22.6661399511
H         18.8412275914       20.5675971222       22.5143454085
C         19.5821462433       19.3054631172       24.1234039380
H         19.7292385931       18.2334050870       24.3108029093
H         20.5740602540       19.7761073718       24.1681454227
C         18.6722069697       19.9132708884       25.2175710511
H         17.6896584109       19.4215028515       25.1981845901
H         18.4935509404       20.9735158829       24.9909234870
C         19.2751802050       19.8046848596       26.6377450401
H         20.2460046150       20.3171998787       26.6666627657
H         18.6201110606       20.3316685554       27.3442289477
C         19.4456035083       18.3460494331       27.1017632534
H         20.1314544076       17.8217809667       26.4313801175
H         18.4789983598       17.8358585435       27.0743416557
N         19.9945439991       18.2327638969       28.5091827481
H         20.9171979978       18.6717785945       28.5956411736
H         20.1005293438       17.2543389742       28.7992523795
H         19.3803755184       18.6829985571       29.1959136815
    29
VM2 Rank=5      G=58.663            E=21.380            -TS=37.283              
C         20.4800421344       19.2506551032       19.1313659196
H         20.9491114318       18.2585188808       19.1014713112
H         20.0618321058       19.4558921596       18.1373690879
H         21.2639695302       19.9938361837       19.3273038085
C         19.3772942201       19.3104374353       20.2094208253
H         18.5918654040       18.5804205651       19.9684311661
H         18.9043228169       20.3023603312       20.1925570776
C         19.9398552600       19.0248471970       21.6193414450
H         20.4134209033       18.0333763368       21.6307942439
H         20.7261192126       19.7554451582       21.8547502925
C         18.8384448146       19.0839731258       22.7016883211
H         18.0523977127       18.3535829154       22.4648518837
H         18.3653360999       20.0756772795       22.6897275879
C         19.4015727288       18.7980169122       24.1120460231
H         19.8719896625       17.8050577093       24.1239516819
H         20.1905073333       19.5272605529       24.3397424437
C         18.2969807406       18.8592700304       25.1940563247
H         17.4917832452       18.1604076030       24.9282478486
H         17.8465566411       19.8615364010       25.2079475752
C         18.8129216755       18.5062532757       26.6087795213
H         17.9623422168       18.4841444247       27.3030232392
H         19.2412257497       17.4950459789       26.6037437144
C         19.8598925893       19.5095481244       27.1276486332
H         19.4333925794       20.5162399802       27.1338833433
H         20.7321568470       19.5086034175       26.4690011481
N         20.3369958366       19.1949987958       28.5306529867
H         19.5668231502       19.2073239436       29.2075552110
H         21.0331007151       19.8741185551       28.8576416126
H         20.7735834738       18.2688601894       28.5868315567
    29
VM2 Rank=6      G=58.791            E=21.496            -TS=37.295              
C         18.9502507570       18.2471386699       19.5328903020
H         19.6607479836       17.4105271440       19.5503908739
H         18.1069297721       17.9964556931       20.1882002983
H         18.5592014630       18.3342782573       18.5109213054
C         19.6327274856       19.5647815755       19.9647981118
H         18.8950047839       20.3793254509       19.9681316635
H         20.3867926244       19.8358898656       19.2127020691
C         20.3209305763       19.4762918665       21.3482550082
H         21.0716413933       18.6741356901       21.3338454896
H         20.8707118092       20.4111584352       21.5244752706
C         19.3315670219       19.2444301369       22.5153199676
H         18.8252688256       18.2783918879       22.3896346212
H         18.5524879505       20.0188897366       22.4949722021
C         20.0459414113       19.2667788019       23.8854930179
H         20.8276671895       18.4947227839       23.9036799579
H         20.5503699155       20.2335644298       24.0208928340
C         19.0602372929       19.0313936332       25.0521896735
H         18.5559382912       18.0642131005       24.9180189528
H         18.2779390069       19.8030358327       25.0338081534
C         19.7733967420       19.0541300609       26.4219370205
H         20.5527138005       18.2807029721       26.4461288902
H         20.2743466109       20.0213404640       26.5621687526
C         18.7831477385       18.8188478416       27.5759254099
H         18.2939721587       17.8492117002       27.4495374388
H         18.0144137434       19.5962846010       27.5658301457
N         19.4458009745       18.8342074135       28.9381914886
H         20.1629239740       18.1060490451       29.0223035362
H         18.7689463912       18.6756817917       29.6928405881
H         19.9027794525       19.7318393219       29.1305012957
    29
VM2 Rank=7      G=58.795            E=21.500            -TS=37.295              
C         19.6446428249       20.1990954272       19.5766640681
H         19.1394364093       20.8995151803       20.2531554216
H         20.7234308379       20.3980256381       19.6175964113
H         19.3010539143       20.4190224734       18.5575893853
C         19.3360758232       18.7304921891       19.9461192349
H         19.7604453293       18.0744348864       19.1732933836
H         18.2497946062       18.5650499897       19.9273883100
C         19.9059357286       18.3096458546       21.3221851258
H         19.7396194063       17.2314871481       21.4533438697
H         20.9946417188       18.4576372944       21.3291164840
C         19.2685445139       19.0674459616       22.5113504850
H         18.1758201940       18.9601717357       22.4712269906
H         19.4875160120       20.1402930403       22.4312696825
C         19.7889981778       18.5448338899       23.8693694890
H         19.5678774159       17.4722262958       23.9592165661
H         20.8823001190       18.6485698254       23.9071503819
C         19.1568139643       19.3032095508       25.0582401184
H         18.0633374128       19.2000936751       25.0203608295
H         19.3781948398       20.3760024461       24.9695625911
C         19.6762153299       18.7812034678       26.4158315576
H         19.4519904445       17.7102994095       26.5106897503
H         20.7684443952       18.8872052616       26.4595472462
C         19.0408278970       19.5430454573       27.5920635521
H         17.9540812901       19.4266383558       27.5621921474
H         19.2754545780       20.6078580353       27.5109076241
N         19.5259457405       19.0590282017       28.9431763690
H         19.3108513104       18.0677219065       29.0935153006
H         19.0907177238       19.5793733021       29.7129657775
H         20.5405371989       19.1668896952       29.0457665890
    29
VM2 Rank=8      G=58.819            E=21.534            -TS=37.285              
C         19.8154448361       17.8219818458       19.5012890882
H         19.4934916528       17.8599480432       18.4525040871
H         20.9123921634       17.7802502408       19.5159048938
H         19.4318772416       16.8907050428       19.9381383956
C         19.2970160650       19.0524985220       20.2752336945
H         18.2001081683       19.0855711857       20.2152301663
H         19.6687501580       19.9682251663       19.7944729709
C         19.7372462968       19.0242311542       21.7556103063
H         19.3677704975       18.1011218598       22.2208396694
H         20.8341607195       18.9934593686       21.8105338512
C         19.2141785309       20.2555931098       22.5335793307
H         18.1154442817       20.2587503554       22.5274993118
H         19.5279946073       21.1689459683       22.0095198577
C         19.7248543507       20.3290709765       23.9935234195
H         20.8235450333       20.3424356949       23.9984146755
H         19.4029334990       21.2864795500       24.4260868588
C         19.2121117086       19.1745504384       24.8875845987
H         19.5900486982       18.2137250626       24.5141171571
H         18.1153891004       19.1287853366       24.8361386409
C         19.6509258287       19.3502347231       26.3579858388
H         20.7468131694       19.3954361923       26.4137406623
H         19.2684630039       20.3032119828       26.7473974454
C         19.1408060665       18.1965683177       27.2391850118
H         19.5327848509       17.2466813639       26.8656574997
H         18.0488369094       18.1579498488       27.1995343220
N         19.5514163166       18.3332709127       28.6910087114
H         19.2016386271       17.5549240066       29.2607232889
H         19.1900276990       19.1964302577       29.1104148498
H         20.5709693907       18.3484920289       28.7997334551
