    13
VM2 Rank=1      G=16.554            E=6.694             -TS=9.860               
C         19.7183880710       18.9886977780       20.9308458759
H         18.7845003309       19.2996023871       20.4442472779
H         20.4604115455       18.7657164342       20.1549474095
C         19.5459588702       17.9070188520       22.0477919256
H         20.4631790929       17.3616272919       22.3028379457
H         18.7360009463       17.1846118667       21.8985638731
C         19.2225964551       19.1061531062       22.9894438563
H         18.1790586618       19.4457217078       22.9366863439
C         20.1960053619       19.9253054127       22.0892723846
H         21.2554003938       19.8236414508       22.3556018523
H         19.9609453238       20.9895102771       21.9789286479
O         19.6300512418       18.9478248510       24.3286459577
H         19.0296041133       18.2889505057       24.7391959334
    13
VM2 Rank=2      G=16.565            E=6.705             -TS=9.860               
C         19.7183589344       18.9885861497       20.9308433774
H         18.7843728625       19.2991711930       20.4442301063
H         20.4603036212       18.7653396298       20.1549453710
C         19.5460028705       17.9071480158       22.0480234338
H         20.4624704629       17.3617241029       22.3052867964
H         18.7355712188       17.1849327525       21.9011648665
C         19.2226500858       19.1063172986       22.9894483263
H         18.1777156701       19.4415481923       22.9366046489
C         20.1960398418       19.9254517702       22.0890446567
H         21.2560540754       19.8234247879       22.3531529146
H         19.9614851953       20.9896189738       21.9763271268
O         19.6299482675       18.9474967656       24.3286402058
H         19.5217576458       19.8171574575       24.7704413524
    13
VM2 Rank=3      G=16.881            E=7.062             -TS=9.819               
C         19.7178389620       18.9888040117       20.9312604461
H         20.4589966327       18.7659737372       20.1544379842
H         18.7835320431       19.2996483573       20.4453441320
C         19.5457438723       17.9064239210       22.0475907962
H         18.7333067386       17.1864075926       21.8998960991
H         20.4618399505       17.3570428163       22.2972615082
C         19.2241835391       19.1057319239       22.9896190029
H         18.1800213182       19.4430802246       22.9384899226
C         20.1962190143       19.9260659381       22.0888661622
H         19.9582428851       20.9896841299       21.9776231598
H         21.2577112369       19.8281249972       22.3477656270
O         19.6290146123       18.9479742052       24.3286635927
H         20.5618838758       18.6476907774       24.3111980153
    13
VM2 Rank=4      G=17.420            E=7.528             -TS=9.892               
C         20.3521015344       18.7766688889       21.3180130546
H         21.3189107092       18.4570051945       21.7271455423
H         20.4220828844       18.7764942366       20.2237211158
C         19.1069735093       18.0469531973       21.9240711510
H         18.2126112976       18.0737122114       21.2897096234
H         19.2663986464       17.0154562390       22.2576949600
C         19.1275649168       19.1357550614       23.0412456430
H         18.1379922340       19.4470751690       23.3994507649
C         19.7592192663       20.0726019015       21.9654555278
H         20.4863694644       20.8042578985       22.3351012125
H         19.0247793850       20.5960228308       21.3412406079
O         19.9671407732       18.8430209509       24.1372146236
H         20.8297083644       18.5729187825       23.7599418464
    13
VM2 Rank=5      G=17.627            E=7.736             -TS=9.891               
C         20.3542217306       18.7758665782       21.3214970672
H         20.4355353958       18.7713920762       20.2281787302
H         21.3151661514       18.4575680207       21.7463247963
C         19.1056862917       18.0482039846       21.9220285013
H         18.2128881947       18.0764078574       21.2857253861
H         19.2646562958       17.0173350070       22.2573357694
C         19.1282019675       19.1360995747       23.0406906027
H         18.1373239701       19.4458045579       23.3971396653
C         19.7574116503       20.0727375749       21.9623122494
H         20.4844706667       20.8058805691       22.3286977248
H         19.0226770116       20.5921601570       21.3351447007
O         19.9674783599       18.8420922876       24.1394715793
H         20.0358151344       19.6580630453       24.6795426734
    13
VM2 Rank=6      G=17.628            E=7.736             -TS=9.891               
C         20.3542523880       18.7759530846       21.3215025923
H         21.3153127647       18.4580223511       21.7463433087
H         20.4359390711       18.7726141365       20.2282084678
C         19.1054626433       18.0480146343       21.9209468697
H         18.2132281516       18.0782981501       21.2837856859
H         19.2639832477       17.0154855486       22.2512596907
C         19.1278886166       19.1351253875       23.0406706306
H         18.1382204458       19.4485796581       23.3971998070
C         19.7574657256       20.0724138223       21.9633810719
H         19.0234717293       20.5938126814       21.3371529680
H         20.4838551251       20.8037714226       22.3346863577
O         19.9679306266       18.8434930713       24.1394988356
H         19.5410985708       18.1214809652       24.6480932030
