    26
VM2 Rank=1      G=23.710            E=-8.843            -TS=32.553              
C         20.2414370220       18.6563419988       18.8059502486
H         19.6046305618       19.4972570389       18.5016773533
H         21.0557474852       18.5686584198       18.0750208261
H         19.6423801380       17.7377788280       18.7548260034
C         20.8050576994       18.8727900691       20.2263786133
H         21.4264793738       19.7792345004       20.2376998035
H         21.4641051980       18.0332931205       20.4887127822
C         19.6784578049       18.9995110370       21.2756931345
H         19.0208342567       19.8377466354       21.0067035832
H         19.0591373954       18.0919452947       21.2594037898
C         20.2389181610       19.2172499256       22.6994399009
H         20.8550848916       20.1270922075       22.7150782732
H         20.8998313826       18.3791374160       22.9575715367
C         19.1075920947       19.3423329088       23.7488037105
H         18.4280422975       20.1491847147       23.4433308560
H         18.5117630391       18.4199782099       23.7645645999
C         19.6331436270       19.6455922971       25.1687728664
H         20.2418857873       20.5538808405       25.1222670481
C         18.4605360141       19.8995949373       26.1295977077
H         17.8446262129       20.7376576810       25.7802579605
H         18.8275536991       20.1520739140       27.1320588885
H         17.8172860542       19.0146940832       26.2138206770
N         20.5228575769       18.5545868265       25.6993638181
H         21.3337055408       18.4049251867       25.0931311593
H         20.8768733484       18.7814233722       26.6329823519
H         20.0216829580       17.6651010812       25.7696465437
    26
VM2 Rank=2      G=24.184            E=-8.383            -TS=32.567              
C         20.2648235450       18.6437383078       18.8025510718
H         20.3175313208       19.2783134249       17.9083558303
H         21.1735050619       18.0284302328       18.8331115787
H         19.4020898696       17.9741780527       18.6902062621
C         20.1356596676       19.5061618768       20.0759971647
H         19.2370559872       20.1344934460       20.0009224216
H         20.9947965994       20.1883208763       20.1429139243
C         20.0595118900       18.6366012689       21.3505412648
H         19.2004502884       17.9552193345       21.2782063657
H         20.9584966574       18.0083874058       21.4186009124
C         19.9304537771       19.4968398836       22.6281522427
H         19.0345674898       20.1260400686       22.5455376372
H         20.7922890568       20.1745433585       22.7022431751
C         19.8498790238       18.6222039096       23.9035841899
H         18.9531292426       17.9896520131       23.8629543987
H         20.7108667641       17.9408081076       23.9147812583
C         19.8534698506       19.4354717157       25.2183127330
H         20.7325884599       20.0872703487       25.2160894309
C         18.5968483720       20.3129642862       25.3617516494
H         17.6825408689       19.7091858992       25.3053913298
H         18.5527612726       21.0781487248       24.5782483617
H         18.5994760622       20.8366535695       26.3256352503
N         19.9973538738       18.5340187514       26.4131096837
H         19.2076993037       17.8876830812       26.4919155942
H         20.8513243799       17.9713091139       26.3607664950
H         20.0402964160       19.0709689623       27.2839209462
    26
VM2 Rank=3      G=24.223            E=-8.475            -TS=32.698              
C         20.3611225330       18.7664751542       18.8988316667
H         21.3564849831       19.2250073950       18.8337190912
H         20.3289309408       17.9289474002       18.1899223848
H         19.6204567911       19.5097812132       18.5761093855
C         20.0681286888       18.2779170409       20.3332573658
H         20.8041415822       17.5117851461       20.6147494986
H         19.0814842709       17.7944056834       20.3591167240
C         20.1073736454       19.4384927052       21.3520571503
H         21.0946280161       19.9199088823       21.3201602381
H         19.3718365736       20.2026309394       21.0647651493
C         19.8142691708       18.9534421700       22.7899187424
H         20.5515155992       18.1892669508       23.0693649656
H         18.8286113296       18.4701993593       22.8097736398
C         19.8522770702       20.1238422075       23.8069691228
H         20.8255098461       20.6276929882       23.7405412616
H         19.1035217606       20.8753599877       23.5234718811
C         19.6133021523       19.7156763391       25.2800247868
H         19.6965786383       20.6232396608       25.8860269751
C         18.2039602877       19.1382996016       25.4993705274
H         18.0784767570       18.1717858394       24.9971097852
H         17.4375635817       19.8255488168       25.1200541140
H         18.0141234319       18.9866146380       26.5690120262
N         20.6675664518       18.7738547815       25.7935706379
H         20.6509012347       17.8852713028       25.2872193204
H         21.6064824019       19.1695499567       25.6919155894
H         20.5302886273       18.5640459424       26.7863225719
    26
VM2 Rank=4      G=24.290            E=-8.375            -TS=32.665              
C         21.0485513535       19.5370065663       19.5911549459
H         20.3772317780       20.3641866141       19.3263401548
H         21.7414935268       19.8901248725       20.3648321710
H         21.6442907978       19.2907083973       18.7026908999
C         20.2489758562       18.3022377528       20.0652837003
H         20.9433380365       17.5002769533       20.3524578384
H         19.6635778902       17.9137409434       19.2201889142
C         19.2858741454       18.6060779029       21.2382314330
H         18.5787652982       19.3914648693       20.9374712147
H         18.6843678691       17.7082348125       21.4368702416
C         20.0116163945       19.0260495379       22.5389805668
H         20.5568140126       19.9650251392       22.3753362796
H         20.7570043020       18.2623221447       22.7972693066
C         19.0189660003       19.2155538858       23.7117987165
H         18.2492870214       19.9389772846       23.4111822202
H         18.4983961143       18.2702112987       23.9150127234
C         19.7000617407       19.7208828970       25.0022117264
H         20.2300234401       20.6495747128       24.7690109853
C         18.6461151305       20.0244110097       26.0791268422
H         18.0852242946       19.1215658722       26.3514894917
H         17.9309190638       20.7766905572       25.7237405995
H         19.1202547711       20.4189479970       26.9862674243
N         20.7278393789       18.7557804476       25.5272120690
H         21.1824785997       19.1157321094       26.3711032872
H         20.3057807400       17.8549120930       25.7672075229
H         21.4618421950       18.5784723521       24.8364159935
    26
VM2 Rank=5      G=24.327            E=-8.331            -TS=32.658              
C         21.0697634363       18.0176619638       19.8285351307
H         20.4117090520       17.1390968010       19.8177038634
H         21.6580443164       18.0076745484       18.9018401580
H         21.7715533510       17.9121190277       20.6650106477
C         20.2509820400       19.3242536645       19.9348670707
H         19.6581652838       19.4457859330       19.0174764204
H         20.9326155142       20.1853041274       19.9764546639
C         19.2943087702       19.3544508303       21.1512766642
H         18.6763330545       20.2605862975       21.0852940377
H         18.6016996521       18.5033566868       21.0943077234
C         20.0281846319       19.3400700064       22.5137831094
H         20.7543232702       20.1641184556       22.5471082143
H         20.5965099114       18.4070250968       22.6136499184
C         19.0395502636       19.4755510076       23.6975437636
H         18.4433568671       20.3874821908       23.5597529726
H         18.3329509097       18.6349352089       23.6891656552
C         19.7463145777       19.5467142718       25.0687006279
H         20.4616727787       20.3745528362       25.0430367631
C         18.7246077577       19.8266315568       26.1824721443
H         17.9821568638       19.0217223537       26.2517410169
H         18.1920394582       20.7674893416       25.9956937256
H         19.2245864613       19.9151285725       27.1548724715
N         20.5342885226       18.3026666986       25.3768214894
H         21.0103117472       18.3756698388       26.2804291705
H         19.9298068988       17.4777637171       25.4148709899
H         21.2506793669       18.1280949741       24.6671351329
    26
VM2 Rank=6      G=24.406            E=-8.262            -TS=32.668              
C         19.9267347427       18.4375716208       19.0848699624
H         19.5851658623       17.4794489478       18.6721140333
H         19.2237155038       19.2150254934       18.7584198319
H         20.9095308809       18.6605065074       18.6493988216
C         20.0037437826       18.3710362985       20.6249605147
H         20.6908356880       17.5659432891       20.9206516458
H         19.0138538885       18.1064639586       21.0197903714
C         20.4794438796       19.7128148407       21.2303536315
H         21.4335930912       19.9962730114       20.7649044666
H         19.7649010432       20.5078198384       20.9760329659
C         20.6775103323       19.6633332433       22.7652721866
H         21.1157302690       20.6172939725       23.0901548493
H         21.4128408527       18.8848562875       23.0086978667
C         19.3622544389       19.4202056991       23.5488810284
H         18.6078854080       20.1426717333       23.2099370382
H         18.9663191451       18.4218026711       23.3241001553
C         19.5397020529       19.5652332382       25.0757765965
H         19.9495880414       20.5591323395       25.2803696024
C         18.1813592913       19.4482106694       25.7856251544
H         17.7268436447       18.4644342509       25.6138763714
H         17.4847238368       20.2143746753       25.4231064446
H         18.2954019600       19.5878386158       26.8676907743
N         20.5172514797       18.5695943900       25.6382609256
H         20.2019001750       17.6083919310       25.4837606223
H         21.4394360753       18.6653226302       25.2048502055
H         20.6390687223       18.6938395967       26.6472865473
    26
VM2 Rank=7      G=24.407            E=-8.338            -TS=32.745              
C         20.8972205624       19.5642006921       19.3398325310
H         21.3062531650       19.0768072511       18.4453040031
H         20.0619986941       20.2026369299       19.0235352699
H         21.6802412994       20.2087673303       19.7601220287
C         20.4324848942       18.5122534363       20.3691784671
H         21.2808366648       17.8684768646       20.6407359235
H         19.6756243326       17.8617766266       19.9087739883
C         19.8509558768       19.1724634317       21.6388072511
H         20.6120197365       19.8274462980       22.0832190732
H         19.0023188090       19.8129783762       21.3613694364
C         19.3867073318       18.1185521732       22.6726522962
H         20.2364560325       17.4901112251       22.9709453345
H         18.6629606698       17.4429845912       22.1960186878
C         18.7225007953       18.7435680317       23.9262786592
H         17.8184522337       19.2834487186       23.6144997149
H         18.3839684636       17.9378556546       24.5911873341
C         19.6369722652       19.7071967562       24.7157008442
H         19.9487343964       20.5135823494       24.0453730425
C         18.8678587503       20.3323205169       25.8903663372
H         17.9832891498       20.8739227354       25.5327053128
H         19.4996245749       21.0475164717       26.4314053355
H         18.5347785754       19.5650794087       26.6004953283
N         20.8932995241       19.0374449619       25.2011836139
H         20.6820714980       18.2683653903       25.8423951570
H         21.4330643100       18.6507379480       24.4222428914
H         21.4999753618       19.6946297184       25.6995948425
    26
VM2 Rank=8      G=24.520            E=-8.102            -TS=32.622              
C         19.8816668895       18.9335805244       18.9776788280
H         19.4717226722       19.7090732079       18.3176783137
H         20.8780927947       18.6651119430       18.6031290604
H         19.2368317368       18.0485734643       18.8989651025
C         19.9532993334       19.4395413015       20.4341150438
H         18.9466583353       19.7363588656       20.7565614220
H         20.5807128240       20.3408360836       20.4757140770
C         20.5244668030       18.3605624276       21.3845471465
H         19.8657905344       17.4811091968       21.3855746842
H         21.4927020470       18.0190168884       20.9930266016
C         20.7319428233       18.8562798456       22.8370695945
H         21.3922239732       19.7346391767       22.8343903106
H         21.2642677227       18.0712675307       23.3899611752
C         19.4088142963       19.1991526828       23.5692854980
H         18.8912688932       20.0001792067       23.0272970979
H         18.7405540436       18.3279183869       23.5570016225
C         19.6294414718       19.6630555745       25.0258222837
H         20.3253623571       20.5076197303       25.0149117408
C         18.3036801476       20.1387843754       25.6415168745
H         17.8754050151       20.9626583589       25.0571015798
H         18.4591502159       20.5029881342       26.6645351454
H         17.5676520630       19.3257772794       25.6761969442
N         20.2546882352       18.5970432682       25.8839647312
H         21.1621089351       18.3024055240       25.5137418642
H         20.4081742905       18.9290333302       26.8403243770
H         19.6598121214       17.7662199327       25.9400194612
