    20
VM2 Rank=1      G=27.007            E=4.319             -TS=22.689              
N         19.7357974592       18.9390724559       25.6478636783
H         19.5332036147       17.9360926568       25.7059622992
H         20.2631425233       19.1850903464       26.4922467797
H         18.8386344668       19.4313366986       25.7040935465
C         20.4972573827       19.2912097872       24.3858533046
H         21.4511213449       18.7571598023       24.4070793432
H         20.7044376364       20.3646255999       24.4050857124
C         19.7325858584       18.9344144555       23.0985127216
H         19.5127718820       17.8584536429       23.0909563165
H         18.7685345237       19.4603253836       23.0890502050
C         20.5420810169       19.3090134491       21.8371136093
H         21.5080667707       18.7851551093       21.8524445034
H         20.7646954372       20.3851422960       21.8505335553
C         19.7838565528       18.9551869550       20.5380976664
H         19.5609487281       17.8790748193       20.5196090625
H         18.8177623228       19.4789157585       20.5176361655
C         20.5964217301       19.3311028974       19.2805590198
H         20.0420812520       19.0723900506       18.3690666307
H         20.8056173315       20.4084530754       19.2528519662
H         21.5547212071       18.7961077951       19.2549091262
    20
VM2 Rank=2      G=27.308            E=4.519             -TS=22.789              
N         20.6068627911       18.3919546390       25.0323952646
H         20.9677346027       18.5359091258       25.9813792499
H         19.9887717397       17.5753834751       25.0696146382
H         21.4065977008       18.1398483848       24.4442559846
C         19.8879495678       19.6213745899       24.5112698885
H         20.5934461442       20.4566247394       24.5202206000
H         19.0785804557       19.8526544238       25.2091544557
C         19.3062281013       19.4490655942       23.0944295420
H         18.6021561057       18.6063416507       23.0872853896
H         18.7229829411       20.3461484205       22.8473727746
C         20.3992452825       19.2367092052       22.0199945380
H         20.9645652957       18.3207100620       22.2376366951
H         21.1154950985       20.0693741131       22.0565887483
C         19.7979766833       19.1369272221       20.6001502848
H         19.0799790936       18.3057770462       20.5587684415
H         19.2356823273       20.0527018651       20.3694941767
C         20.8897375740       18.9239687497       19.5297604820
H         20.4435850787       18.8563194821       18.5290569901
H         21.6048667670       19.7568937623       19.5237805339
H         21.4471928851       17.9961552280       19.7130606763
    20
VM2 Rank=3      G=27.347            E=4.558             -TS=22.789              
N         19.8798243190       19.9562970887       25.0304587932
H         18.8570923758       20.0103949855       25.0665533797
H         20.2215956951       20.1412389635       25.9794108460
H         20.2033305633       20.7289659112       24.4410800807
C         20.3565662337       18.6130458015       24.5125040170
H         20.0108550607       17.8466631726       25.2116128778
H         21.4498870703       18.6138144938       24.5224811841
C         19.8511100880       18.2766299445       23.0958682062
H         20.1608890431       17.2518646800       22.8512009490
H         18.7529941674       18.2819155280       23.0876660147
C         20.3946672885       19.2467712695       22.0199675615
H         21.4929263584       19.2571456754       22.0574275007
H         20.0591137378       20.2700169999       22.2353308998
C         19.9317393590       18.8488623597       20.6005321771
H         20.2690217913       17.8280254866       20.3721623509
H         18.8335129725       18.8362369559       20.5582883841
C         20.4740927119       19.8183935361       19.5286692450
H         20.1352819177       19.5192292228       18.5282977013
H         20.1246719008       20.8432362753       19.7097668733
H         21.5718633208       19.8274554541       19.5234467092
    20
VM2 Rank=4      G=27.493            E=4.709             -TS=22.784              
N         19.6444649463       19.3205399884       25.4425424566
H         18.6980697141       18.9275693826       25.4587340527
H         20.2498601749       18.6687354663       25.9514720697
H         19.6157215019       20.1876973582       25.9891376546
C         20.1337121473       19.5617237614       24.0287388431
H         21.1310011557       20.0059902948       24.0877687473
H         19.4619958695       20.2858342652       23.5605852664
C         20.1886017524       18.2768587469       23.1804472396
H         20.8313477705       17.5422003080       23.6835138540
H         19.1871780242       17.8300123863       23.1217623371
C         20.7317540643       18.5248478497       21.7532115320
H         20.8307131252       17.5579047210       21.2406844580
H         21.7440516324       18.9481055173       21.8143969985
C         19.8272810182       19.4555882275       20.9108445101
H         18.8070693671       19.0483541271       20.8750038649
H         19.7574677514       20.4452374124       21.3823824537
C         20.3621860714       19.6204414260       19.4722154186
H         20.4078979980       18.6536230432       18.9541604418
H         19.7097211391       20.2836456929       18.8895545447
H         21.3700517795       20.0556716441       19.4731642550
    20
VM2 Rank=5      G=27.505            E=4.721             -TS=22.784              
N         19.9685340739       18.6227421410       25.4433838280
H         19.0578787014       18.1528497511       25.4595788223
H         20.6122002313       18.0426924810       25.9918252931
H         19.8602185812       19.5067994440       25.9504090260
C         20.4698267371       18.8382857963       24.0296582992
H         20.5904482955       17.8570067587       23.5635592110
H         21.4524935505       19.3140149804       24.0887422305
C         19.5241693626       19.7072579333       23.1787152748
H         18.5368303444       19.2300937455       23.1200579971
H         19.3768624248       20.6732967289       23.6797057832
C         20.0653573464       19.9595092086       21.7514799923
H         21.0417130191       20.4601390262       21.8125823561
H         19.3907910718       20.6578430422       21.2369467808
C         20.1939110527       18.6663260970       20.9117852800
H         20.9046930639       17.9755534311       21.3853326327
H         19.2246786247       18.1493447727       20.8761017506
C         20.6662014272       18.9658788238       19.4729773257
H         20.7526359069       18.0383489958       18.8922338787
H         19.9573558765       19.6234146636       18.9529837676
H         21.6488952161       19.4552987873       19.4738259571
    20
VM2 Rank=6      G=27.623            E=4.825             -TS=22.798              
N         19.4823005295       19.4056148996       25.4133109506
H         18.6901668718       18.7556999905       25.4356910503
H         19.9097019636       19.3853493716       26.3452437654
H         19.0967184233       20.3462975773       25.2837837110
C         20.4786388790       19.0472824553       24.3291148872
H         20.8696236566       18.0496278230       24.5466219274
H         21.3065177830       19.7595049300       24.3826259255
C         19.8688321064       19.0676985740       22.9159680757
H         19.0279187449       18.3629413624       22.8713054676
H         19.4641807459       20.0677592526       22.7154662571
C         20.9189531769       18.6941570632       21.8431951417
H         21.3668815298       17.7249097749       22.1033128267
H         21.7384582057       19.4261513558       21.8567285050
C         20.3341060893       18.5983488671       20.4130065119
H         21.1169586690       18.2286810623       19.7359345309
H         19.5297127107       17.8498332535       20.3895081468
C         19.8051692189       19.9468981408       19.8734044330
H         20.5828945566       20.7206080551       19.9125256621
H         19.4871504248       19.8440192474       18.8278270632
H         18.9394356753       20.2997143229       20.4473807963
    20
VM2 Rank=7      G=27.631            E=4.833             -TS=22.798              
N         19.9291243344       18.4438537166       25.4144467126
H         20.1884663825       18.7853694492       26.3459454080
H         18.9215393884       18.2576828555       25.4363013582
H         20.3994576384       17.5422434565       25.2870862970
C         20.2988212539       19.4342782297       24.3286476360
H         21.3770105587       19.6077244789       24.3827795865
H         19.7883565316       20.3769341845       24.5438646619
C         19.9223928712       18.9523172813       22.9161037896
H         20.4257546094       17.9976248611       22.7179773290
H         18.8414722900       18.7642517487       22.8708033406
C         20.3153414026       19.9935659403       21.8416165679
H         21.4032917212       20.1476636909       21.8558898993
H         19.8633652703       20.9615669513       22.0993598495
C         19.8662689678       19.6055783827       20.4117674827
H         18.7754436482       19.4737195482       20.3874660333
H         20.0894581579       20.4408646171       19.7332218645
C         20.5560511700       18.3304064494       19.8754178111
H         20.2665881601       17.4424436852       20.4508794529
H         20.2733494878       18.1516738927       18.8299102683
H         21.6489108619       18.4256431072       19.9154534520
    20
VM2 Rank=8      G=27.903            E=5.022             -TS=22.881              
N         19.4805025911       19.1733346442       25.1477397156
H         19.6590175040       19.4561492312       26.1170952586
H         18.8426480394       19.8674688168       24.7474161413
H         18.9742543398       18.2831332871       25.1857943061
C         20.7649121117       19.0590854653       24.3493647082
H         21.4080081606       18.3368832543       24.8597084592
H         21.2645560740       20.0314273277       24.3680393480
C         20.5553032052       18.6116096488       22.8893307778
H         21.5428987040       18.4472322002       22.4407292657
H         20.0378388946       17.6432752776       22.8735753264
C         19.7662382016       19.6499661037       22.0524862583
H         20.3014508614       20.6096604234       22.0539787385
H         18.7936117909       19.8379730584       22.5260455434
C         19.5138296975       19.2013713120       20.5923377134
H         18.9665233000       18.2483378801       20.5853854526
H         18.8561227995       19.9361317394       20.1070652506
C         20.8072141930       19.0646328261       19.7567408267
H         21.4448952861       18.2532885591       20.1286982512
H         20.5658007349       18.8393733650       18.7098761966
H         21.3889050314       19.9954163056       19.7735218801
