    19
VM2 Rank=1      G=-26.152           E=-40.889           -TS=14.737              
C         19.9538820391       19.2770585831       25.5145004838
O         20.6501487364       18.4763276188       26.1062979008
O         19.7317709021       20.4017916319       25.9167733346
C         19.3418780975       18.8541620756       24.1837196512
H         18.3778532512       19.3654072707       24.0740510217
H         19.1346332336       17.7782378142       24.2303952969
C         20.2548906342       19.1702851866       22.9735174708
H         20.4633768204       20.2489178128       22.9482903881
H         21.2201166615       18.6616479205       23.1045831341
C         19.6127437333       18.7327756354       21.6394034024
H         18.6474970729       19.2419354180       21.5119380074
H         19.4043253598       17.6543872526       21.6682725081
C         20.5244766818       19.0488807711       20.4355795373
H         20.7336894152       20.1271218045       20.4021260073
H         21.4904657953       18.5397066502       20.5584559450
C         19.8802091755       18.6107184976       19.1052082190
H         19.6887130766       17.5296490177       19.0988104342
H         18.9262751292       19.1289528588       18.9413027195
H         20.5415210342       18.8427759346       18.2602682710
    19
VM2 Rank=2      G=-25.407           E=-40.253           -TS=14.845              
C         19.8291934927       19.3145823337       25.3694969809
O         20.1458289499       18.4558655918       26.1686448320
O         19.7257886721       20.4915245415       25.6530036711
C         19.5681487569       18.8951259560       23.9271823735
H         18.7936388607       19.5564584041       23.5226850646
H         19.1558922341       17.8790318014       23.9375728638
C         20.8441526361       18.9454571701       23.0471478898
H         21.2225770742       19.9762727858       23.0081097436
H         21.6284029586       18.3452570065       23.5289498298
C         20.6254279785       18.4139046021       21.6107855216
H         20.2552128712       17.3803882953       21.6531252298
H         21.5981730012       18.3749099056       21.1016096175
C         19.6562068066       19.2805671919       20.7759101382
H         18.6554101297       19.2713270690       21.2272239886
H         19.9987896348       20.3245521768       20.7758331692
C         19.5552527073       18.7749726129       19.3228285930
H         20.5340350652       18.8066761780       18.8264753078
H         19.1882010776       17.7407020755       19.2918035604
H         18.8615878196       19.3983805674       18.7437943082
    19
VM2 Rank=3      G=-25.370           E=-40.215           -TS=14.846              
C         20.1746647562       19.3730581709       25.3607207233
O         20.1981915329       18.4646857994       26.1673158361
O         19.8984339239       20.5207137447       25.6485495909
C         20.4874539696       19.0508071319       23.9037800335
H         21.2110043936       18.2270100189       23.8852123893
H         20.9802837174       19.9267224341       23.4670472107
C         19.2240195592       18.6712372739       23.0884024448
H         18.7056849309       17.8505364829       23.6033800122
H         18.5261473780       19.5198530562       23.0767603032
C         19.5340676685       18.2291808103       21.6385814807
H         18.6043406702       17.8681529294       21.1778434147
H         20.2252230059       17.3753202605       21.6539068838
C         20.1217653916       19.3593737306       20.7640601193
H         19.4553089976       20.2325574248       20.7896494388
H         21.0909409001       19.6836032420       21.1652299960
C         20.3114031981       18.9029433384       19.3035897714
H         20.9961709921       18.0466952300       19.2458102560
H         19.3533658359       18.6068284450       18.8565244274
H         20.7319334891       19.7149267829       18.6961960472
    19
VM2 Rank=4      G=-25.272           E=-40.125           -TS=14.853              
C         20.0105354143       19.3757455665       25.3742913160
O         20.8024240530       18.7067779309       26.0080404578
O         19.7500482536       20.5339363024       25.6330593936
C         19.3188825908       18.7317056959       24.1779107747
H         18.3202466781       19.1747375102       24.0821163637
H         19.1811487550       17.6660563079       24.3972242099
C         20.1097554899       18.9083769868       22.8581597288
H         20.2513037863       19.9807656654       22.6695698687
H         21.1099652965       18.4683412762       22.9729961650
C         19.3841820124       18.2494409979       21.6623332514
H         18.4036912857       18.7233061015       21.5170880244
H         19.1882375686       17.1948831029       21.9000404336
C         20.1898273193       18.3139835187       20.3442451350
H         21.1692213316       17.8358693718       20.4839643748
H         19.6634328545       17.7254860344       19.5801610778
C         20.3843448667       19.7520330009       19.8169599425
H         19.4188449705       20.2605685638       19.6971335773
H         21.0056667216       20.3477640593       20.4972603313
H         20.8825097599       19.7379324641       18.8389139209
    19
VM2 Rank=5      G=-25.266           E=-40.119           -TS=14.853              
C         19.8728565605       19.2876505851       25.3816765523
O         20.1972958271       18.3193419713       26.0399786720
O         18.9512136409       20.0226656845       25.6758657250
C         20.6537094049       19.5861796797       24.1066674062
H         21.6933507432       19.2741767189       24.2631205512
H         20.6602271432       20.6726172873       23.9572050976
C         20.0649460976       18.8797373762       22.8605793115
H         20.0565127462       17.7940519155       23.0292662896
H         19.0199282051       19.1925892670       22.7353538665
C         20.8734352701       19.2027898605       21.5828326970
H         21.9286385042       18.9491579050       21.7537393121
H         20.8406587041       20.2833275905       21.3869493460
C         20.3803152359       18.4358897190       20.3341197411
H         21.0747603469       18.6289288497       19.5048273396
H         20.4170170873       17.3542944510       20.5242031721
C         18.9562279631       18.8377451236       19.8932798949
H         18.2094239242       18.5576240002       20.6466467082
H         18.8876707200       19.9204852752       19.7255602199
H         18.6879473946       18.3329895573       18.9561620743
    19
VM2 Rank=6      G=-24.722           E=-39.769           -TS=15.047              
C         20.1397062003       19.2124575105       25.1802733596
O         20.9104685340       18.2974348498       25.3928966868
O         20.3192385285       20.3475963000       25.5751276947
C         18.8654818863       18.9175973130       24.3936636935
H         18.0325215567       19.3859653117       24.9311754048
H         18.6856949845       17.8357558179       24.4104835988
C         18.8927313752       19.4329070486       22.9312000372
H         17.8955187437       19.3034891645       22.4892131813
H         19.1020480187       20.5117087198       22.9293475997
C         19.9351357105       18.6959762582       22.0607792464
H         19.7293979353       17.6168739561       22.0762843470
H         20.9382756370       18.8348492629       22.4872142845
C         19.9230887920       19.2026112256       20.6034603619
H         18.9230611056       19.0623254376       20.1702231218
H         20.1310044732       20.2814529447       20.5848568373
C         20.9641489732       18.4654194943       19.7375989199
H         21.9783275027       18.6148183516       20.1307433651
H         20.7614216748       17.3866685003       19.7130685254
H         20.9423990491       18.8380661084       18.7052493593
    19
VM2 Rank=7      G=-24.721           E=-39.768           -TS=15.047              
C         20.0469089019       19.4069208785       25.1611649133
O         21.0054826723       18.9084339768       25.7173370435
O         19.8125624458       20.5992335410       25.1659256736
C         19.0738818669       18.4808504374       24.4366278611
H         18.1247091075       19.0117664944       24.2945489376
H         18.8676664457       17.6353533760       25.1035022774
C         19.5996770794       17.9514205213       23.0770941793
H         20.5641148659       17.4476796179       23.2311564732
H         18.9032165659       17.1917232575       22.6971785082
C         19.7562628234       19.0709553201       22.0238003021
H         20.4649275379       19.8269362290       22.3894616739
H         18.7928079499       19.5797970616       21.8828614005
C         20.2501362401       18.5174068942       20.6709230037
H         21.2150791019       18.0100484453       20.8085708444
H         19.5429463073       17.7635046175       20.2981726518
C         20.4050879701       19.6367784308       19.6221270233
H         19.4467499159       20.1411684458       19.4416157100
H         21.1312481444       20.3896326270       19.9558077316
H         20.7572455390       19.2260002329       18.6669661930
    19
VM2 Rank=8      G=-24.443           E=-39.689           -TS=15.246              
C         20.0072746180       19.2236370349       25.5349363674
O         19.9565843354       18.5580558800       26.5498719981
O         20.1008403880       20.4358086782       25.5404520396
C         19.9480846662       18.4725390649       24.2037624207
H         19.0189301430       17.8905741339       24.1975434115
H         20.7764851452       17.7543843554       24.1962421557
C         20.0162673602       19.3644734151       22.9355996299
H         19.1871643656       20.0854330506       22.9521367932
H         20.9465367179       19.9491391349       22.9508650212
C         19.9504249985       18.5266811097       21.6402115326
H         19.0197579183       17.9428683264       21.6271181637
H         20.7800849391       17.8065373407       21.6258100352
C         20.0183042918       19.4152455456       20.3807512074
H         19.1887909805       20.1358739402       20.3904873901
H         20.9489546680       19.9994655356       20.3891155516
C         19.9522193419       18.5755592716       19.0894148044
H         19.0158735084       18.0044085592       19.0397652984
H         20.0017043476       19.2228713329       18.2041765610
H         20.7892911072       17.8669494190       19.0383883668
