    25
VM2 Rank=1      G=62.075            E=29.291            -TS=32.785              
C         21.2649509542       19.5699900683       21.1383820720
H         21.7745901638       19.7414888845       20.1802893181
H         22.0468908452       19.7183033403       21.8916246365
C         20.7595374464       18.1038126228       21.1583146030
H         19.7152405149       18.0408761216       20.8265137673
H         21.3327054754       17.5468304378       20.4044848546
C         20.9529769164       17.3662015278       22.5093823830
H         22.0133498625       17.4004968618       22.7947236733
H         20.7266361911       16.3038612273       22.3451371682
C         20.0857671616       17.8547875487       23.7002743379
H         19.0202772977       17.7989509426       23.4478194409
H         20.2245787134       17.1309617114       24.5147305893
C         20.4544395738       19.2645843670       24.2301194301
H         21.4702657560       19.5138160596       23.9017306914
C         19.4857953474       20.3914237428       23.7945574991
H         18.5769437172       20.3182168848       24.4070485400
H         19.9398320597       21.3598075194       24.0411350660
C         19.0436449616       20.4095153305       22.3085555939
H         18.3090796905       21.2184700338       22.1958377884
H         18.4890367170       19.4966684972       22.0627646445
C         20.1645036921       20.6552427829       21.2675767368
H         19.6821646646       20.7603322547       20.2860933847
H         20.6410809271       21.6243707251       21.4681611269
O         20.4523839465       19.2274420093       25.6528373442
H         20.7315532497       20.1156400848       25.9587915585
    25
VM2 Rank=2      G=62.111            E=29.304            -TS=32.807              
C         21.2655926721       19.5696016095       21.1386078177
H         21.7735257580       19.7405173639       20.1795023342
H         22.0494417410       19.7177576582       21.8898775377
C         20.7600447598       18.1033793920       21.1596358981
H         19.7157083604       18.0405673724       20.8279101694
H         21.3329926183       17.5460475536       20.4058855804
C         20.9534928380       17.3658767992       22.5108785286
H         22.0136890288       17.4008165309       22.7967539787
H         20.7279199587       16.3034208070       22.3459889366
C         20.0832630211       17.8542396612       23.6993013052
H         19.0191736449       17.8028768619       23.4394543735
H         20.2119772973       17.1259983704       24.5111003878
C         20.4528594441       19.2643190171       24.2284347116
H         21.4658132894       19.5190669966       23.8957203705
C         19.4814935141       20.3887533935       23.7950874518
H         18.5734214562       20.3112290295       24.4078463135
H         19.9343160451       21.3555601655       24.0498006787
C         19.0429472857       20.4114152319       22.3077788330
H         18.3104789903       21.2222982726       22.1955259978
H         18.4868464381       19.5004150207       22.0586621740
C         20.1665330497       20.6564932613       21.2693374648
H         20.6446940077       21.6241951982       21.4730239174
H         19.6859780820       20.7650316056       20.2873604067
O         20.4577734154       19.2289216343       25.6509379892
H         21.1308372435       18.5666811262       25.9134327216
    25
VM2 Rank=3      G=62.126            E=29.342            -TS=32.784              
C         21.2426351002       19.6237958611       21.1382123486
H         21.7260552534       19.8584755810       20.1799247969
H         21.8986577746       20.0759040350       21.8905649154
C         21.2325174469       18.0789166783       21.2749653698
H         20.9680195234       17.6585771945       20.2949847555
H         22.2545718991       17.7322197414       21.4793535385
C         20.2644125206       17.4646446854       22.3169766391
H         20.3178566234       16.3727046037       22.2096977255
H         19.2271277753       17.7161639172       22.0678361117
C         20.5610427781       17.7975001518       23.8019823369
H         19.8656780293       17.2092380583       24.4159284989
H         21.5665268396       17.4355466122       24.0523970089
C         20.4475163442       19.2812795363       24.2300685277
H         21.3424233722       19.8222133221       23.9008407757
C         19.1906282833       20.0141853634       23.6940965404
H         18.3986317010       19.2985922402       23.4435212203
H         18.7749832542       20.6278992584       24.5047283670
C         19.4602488633       20.9672008440       22.4990827212
H         20.2333434784       21.6945439591       22.7824302943
H         18.5490367630       21.5570470458       22.3301249554
C         19.8480913068       20.3024543482       21.1520265742
H         19.0662074481       19.6064671191       20.8220730367
H         19.8605942870       21.0978933297       20.3943129475
O         20.4169073566       19.3130225315       25.6525889421
H         21.2419028791       18.8841981608       25.9623161283
    25
VM2 Rank=4      G=62.127            E=29.319            -TS=32.807              
C         21.2430031174       19.6245408046       21.1385365155
H         21.7248986397       19.8584142850       20.1792806876
H         21.9002022979       20.0780980891       21.8889721923
C         21.2349941651       18.0794924661       21.2768258363
H         20.9743222982       17.6579808913       20.2963299371
H         22.2571259886       17.7349336680       21.4844340850
C         20.2652919435       17.4628140713       22.3161828243
H         20.3215733006       16.3709986195       22.2093568909
H         19.2283010412       17.7119765843       22.0636044851
C         20.5559596556       17.7963170351       23.8025250136
H         19.8579697243       17.2116950051       24.4166155425
H         21.5593993678       17.4346027099       24.0612029274
C         20.4460762831       19.2803140035       24.2283932300
H         21.3429038177       19.8152722678       23.8949400930
C         19.1883939160       20.0127862911       23.6930217273
H         18.4005868723       19.2949966221       23.4349848661
H         18.7624169294       20.6224536184       24.5009627594
C         19.4604258938       20.9678069865       22.5005132030
H         20.2338140381       21.6945726296       22.7844932542
H         18.5496889442       21.5582702910       22.3308194164
C         19.8483392238       20.3031604863       21.1533101622
H         19.0665474916       19.6070773662       20.8233172803
H         19.8605385436       21.0987146998       20.3957002794
O         20.4215158017       19.3157678555       25.6506914877
H         20.4280165794       20.2612483995       25.9085755500
    25
VM2 Rank=5      G=62.195            E=29.408            -TS=32.788              
C         20.7558104508       19.2414853910       20.8005585859
H         20.7017977029       19.0670124220       19.7172560469
H         21.8174545813       19.4274334189       21.0081876804
C         20.2661935190       17.9508472168       21.5065812556
H         19.2040936010       18.0305786446       21.7639423122
H         20.3136615488       17.1256284804       20.7828581324
C         21.1003652884       17.5255152268       22.7406246432
H         22.0421418048       17.0936333105       22.3754021833
H         20.5849032719       16.7050338750       23.2571151383
C         21.4659587013       18.6396239081       23.7585085314
H         22.1040514233       18.1862151055       24.5283593818
H         22.1068439356       19.3873420051       23.2790792690
C         20.2996822484       19.3460949634       24.4923990993
H         20.7560763009       20.0337341262       25.2188326875
C         19.3297637929       20.1868134350       23.6260385741
H         18.5531901226       19.5556012235       23.1804380704
H         18.7873279803       20.8467136779       24.3157236337
C         19.9923155588       21.0753090978       22.5395988238
H         21.0293687201       21.3196478555       22.8029181467
H         19.4641112238       22.0386165374       22.5337524351
C         19.9095330461       20.5060445371       21.0994116034
H         18.8590737749       20.3095319182       20.8449440242
H         20.2359514551       21.2960664517       20.4093800766
O         19.5443773942       18.3712662241       25.1962788834
H         19.2505341754       17.7296921921       24.5185262864
    25
VM2 Rank=6      G=62.220            E=29.432            -TS=32.788              
C         20.6500348030       19.4973013284       20.8001125668
H         21.5266940149       20.1245060167       21.0071319730
H         20.4905944659       19.5762131927       19.7160211880
C         20.9569574383       18.0085199241       21.1065969973
H         20.0807339535       17.3964856692       20.8526665710
H         21.7507796455       17.6838758361       20.4200993498
C         21.4170326840       17.6748367415       22.5495249229
H         22.3179148646       18.2438111011       22.8125728655
H         21.7331433776       16.6226638266       22.5493178352
C         20.3162241894       17.8307808282       23.6324164570
H         19.3227812943       17.7179358467       23.1847616780
H         20.4043253599       16.9844794028       24.3262323415
C         20.3950544446       19.1157565765       24.4930880378
H         21.2033706300       18.9620673154       25.2223722629
C         20.7115192455       20.4391679718       23.7539473152
H         20.8339328735       21.2155171127       24.5205688295
H         21.6952308499       20.3692859742       23.2774014950
C         19.6636756955       20.9553909877       22.7309533494
H         20.0174205225       21.9278694687       22.3621691335
H         18.7159937998       21.1658969570       23.2440225607
C         19.3848938969       20.0568352532       21.5003098781
H         18.8318808893       20.6661515289       20.7723513964
H         18.6960864523       19.2450845365       21.7596406258
O         19.1686076027       19.2644103885       25.1930504755
H         18.5070214937       19.5018674543       24.5124417549
    25
VM2 Rank=7      G=62.234            E=29.468            -TS=32.766              
C         21.2427012507       19.6234023502       21.1389898141
H         21.7270133088       19.8591975294       20.1814309603
H         21.8982152273       20.0740832836       21.8927005718
C         21.2318685082       18.0785042961       21.2739592425
H         20.9661726039       17.6591401473       20.2938894819
H         22.2539883705       17.7312594641       21.4771339869
C         20.2648988799       17.4639631867       22.3167653144
H         20.3194901487       16.3720503571       22.2096708924
H         19.2272805353       17.7144823938       22.0679737642
C         20.5623852281       17.7974439601       23.8014724818
H         19.8736340617       17.2020815677       24.4152643163
H         21.5707459844       17.4429016694       24.0516571088
C         20.4456435943       19.2808712995       24.2302566002
H         21.3417264696       19.8210844441       23.9035300365
C         19.1892183993       20.0151058413       23.6943625781
H         18.3966175344       19.3011176688       23.4402726334
H         18.7731004121       20.6323311979       24.5021303353
C         19.4613274044       20.9675628086       22.4996513797
H         20.2357816137       21.6934119972       22.7832696420
H         18.5514265954       21.5593139089       22.3301137898
C         19.8483200678       20.3022382017       21.1527344568
H         19.8609250053       21.0974083398       20.3947345994
H         19.0661565978       19.6063747157       20.8231730059
O         20.4176366674       19.3139080558       25.6518081324
H         19.6032920864       18.8430479996       25.9238793708
    25
VM2 Rank=8      G=62.249            E=29.482            -TS=32.767              
C         21.2647852988       19.5702812175       21.1391699469
H         21.7758417224       19.7415971909       20.1818046661
H         22.0453791798       19.7191642130       21.8937561436
C         20.7594937285       18.1041328605       21.1590128457
H         19.7150714253       18.0409969018       20.8276353951
H         21.3324800134       17.5473759486       20.4048733066
C         20.9539267805       17.3666897100       22.5099284238
H         22.0142016048       17.4029785224       22.7955412250
H         20.7298412381       16.3039348569       22.3450979391
C         20.0853425806       17.8531298313       23.7005098667
H         19.0205746597       17.7957713464       23.4445057299
H         20.2262563753       17.1264504902       24.5121087069
C         20.4527815539       19.2635136243       24.2303101555
H         21.4689384547       19.5140876891       23.9044516910
C         19.4867016699       20.3924137742       23.7940608478
H         18.5774578218       20.3288631394       24.4062816450
H         19.9480042845       21.3575724802       24.0405441432
C         19.0436052975       20.4104564021       22.3083276850
H         18.3099532302       21.2202794746       22.1957941010
H         18.4879801727       19.4981465006       22.0628091026
C         20.1639283885       20.6551381543       21.2666231410
H         20.6402599648       21.6246311732       21.4660702737
H         19.6814793104       20.7588058279       20.2850459347
O         20.4534347018       19.2272444258       25.6520570876
H         19.5442709360       18.9850260239       25.9234211826
