    19
VM2 Rank=1      G=-26.151           E=-40.888           -TS=14.737              
C         19.9538856790       19.2770577255       25.5145053167
O         20.6500896495       18.4763338322       26.1063862049
O         19.7318083521       20.4018270484       25.9166957560
C         19.3419102548       18.8540988368       24.1837303102
H         18.3778573109       19.3652886626       24.0740583671
H         19.1347245205       17.7781642909       24.2304225589
C         20.2548972878       19.1702554826       22.9735168349
H         20.4633332027       20.2488967868       22.9482849712
H         21.2201485903       18.6616637657       23.1045723411
C         19.6127665538       18.7327120909       21.6394043304
H         18.6474379208       19.2417311403       21.5119915195
H         19.4045151518       17.6542907248       21.6682344309
C         20.5244104722       19.0490146299       20.4355631339
H         20.7333686611       20.1273041075       20.4020979303
H         21.4905224870       18.5400698350       20.5584278791
C         19.8802317509       18.6107003538       19.1051981130
H         18.9261432137       19.1286621359       18.9413276711
H         20.5414561509       18.8429660008       18.2602463002
H         19.6890487845       17.5295762923       19.0987786719
