    29
VM2 Rank=1      G=58.146            E=20.962            -TS=37.184              
C         19.9950423644       18.9912754359       18.8122377493
H         20.8995746465       19.6133893157       18.8049888214
H         20.3035777264       17.9386217114       18.7677301691
H         19.4251763334       19.2143455099       17.9008956002
C         19.1426482926       19.2666552360       20.0689911017
H         18.2297691670       18.6558053602       20.0314050566
H         18.8212424644       20.3176536295       20.0684314836
C         19.9220227608       18.9603419919       21.3669476393
H         20.2431586394       17.9095062794       21.3619477755
H         20.8346423741       19.5714942228       21.3990173587
C         19.0716633748       19.2348460134       22.6277258251
H         18.1591244951       18.6235894941       22.5947677229
H         18.7506717393       20.2857476798       22.6318649326
C         19.8517483318       18.9282463715       23.9259812122
H         20.1728894716       17.8773647537       23.9213574193
H         20.7643034246       19.5395464277       23.9585307203
C         19.0012092027       19.2026735287       25.1866994635
H         18.0885042593       18.5913556379       25.1546623454
H         18.6798698680       20.2536173234       25.1917951175
C         19.7802504056       18.8965217011       26.4846667591
H         20.0986613942       17.8454612299       26.4858327483
H         20.6907275209       19.5094489699       26.5229642478
C         18.9244692288       19.1731603998       27.7331728481
H         18.0245211755       18.5527537294       27.7076666804
H         18.6188380259       20.2228814336       27.7449779954
N         19.6549460384       18.8842793217       29.0285774016
H         20.4995992580       19.4574107973       29.1267603804
H         19.9465639681       17.9032122917       29.0920228217
H         19.0674577372       19.0750126661       29.8478702896
