    17
VM2 Rank=1      G=-29.182           E=-40.002           -TS=10.820              
C         19.7723661825       19.0786571911       25.2791354877
O         19.3188069637       19.9200179331       26.0302020894
O         20.4466581719       18.1425662558       25.6657333017
C         19.4751291228       19.2204502521       23.8280297127
H         18.8676261537       20.0785613179       23.5496512697
C         19.9148692616       18.3608213323       22.8810594446
H         20.5261450980       17.4991244193       23.1486319372
C         19.6098709888       18.5134941605       21.4069813562
H         18.5799430469       18.8708876202       21.2716049038
H         19.6673176672       17.5326719493       20.9159872974
C         20.5928551984       19.4889863575       20.7278837960
H         20.5336603508       20.4720572462       21.2153536557
H         21.6220527856       19.1282689539       20.8627950466
C         20.2944441102       19.6430065177       19.2229748117
H         21.0033654641       20.3400612322       18.7574906113
H         20.3779841384       18.6785419829       18.7050374733
H         19.2807100960       20.0324375964       19.0613530473
