    17
VM2 Rank=1      G=-26.662           E=-36.827           -TS=10.165              
C         20.1216976428       19.0267447107       25.0643070233
O         21.2294611796       19.3331988263       25.4592614478
O         19.0986431953       19.5456894235       25.4656776430
C         20.0075777936       17.9136228136       24.0272012105
H         19.0745677831       17.3709563599       24.2188901576
H         20.8160292268       17.1971730496       24.2138716657
C         20.0478945712       18.3594374425       22.5718659177
H         19.9647177787       17.5395471287       21.8612930777
C         20.1721873664       19.6233368893       22.1416645380
H         20.2548887211       20.4372032588       22.8608473844
C         20.2145140593       20.0872363571       20.6950347831
H         19.4069147293       20.8133311420       20.5304797184
H         21.1477343593       20.6414460461       20.5263342179
C         20.1010241917       18.9627335370       19.6419874366
H         20.1400043073       19.3804525734       18.6275768236
H         20.9258160192       18.2449405384       19.7414703761
H         19.1521639210       18.4201852469       19.7454690530
