    22
VM2 Rank=1      G=-16.998           E=-36.566           -TS=19.568              
C         19.8314360920       19.1340983047       26.1874722794
O         20.0587432905       20.2372457611       26.6433547125
O         20.1744729171       18.0998502213       26.7251413914
C         19.0946144557       19.0432561732       24.8559110036
H         18.3979669600       19.8879278403       24.7936708196
H         18.4928852323       18.1264389237       24.8613228243
C         20.0506092350       19.0479853977       23.6376735831
H         20.6548417387       19.9657027278       23.6541240439
H         20.7496387274       18.2042576996       23.7216728097
C         19.2807848742       18.9553695061       22.3025049840
H         18.5820942646       19.7995067861       22.2222724537
H         18.6768439711       18.0376175046       22.2898453647
C         20.2363076687       18.9602525805       21.0899709738
H         20.8405345625       19.8777947143       21.1023463758
H         20.9350934063       18.1161819862       21.1697783731
C         19.4676616931       18.8679027818       19.7551595014
H         18.7689630634       19.7118061076       19.6707579092
H         18.8634998620       17.9502015215       19.7381955647
C         20.4253697738       18.8730392737       18.5468115709
H         21.0205446313       19.7952757633       18.5212511373
H         19.8624298961       18.8068320767       17.6067018480
H         21.1157980784       18.0204443824       18.5892079852
    22
VM2 Rank=2      G=-16.190           E=-35.867           -TS=19.677              
C         19.7290088584       18.8549106380       25.9655550593
O         19.2129487945       19.6429604388       26.7331485950
O         20.5231954318       18.0021776149       26.3099660695
C         19.3783216494       18.9569669535       24.4854261383
H         18.3434483784       19.3104219338       24.4046013524
H         19.4107593856       17.9455686449       24.0649466460
C         20.3292799083       19.9034247174       23.7075904102
H         20.3430672413       20.8803852503       24.2103824691
H         21.3556940806       19.5144600630       23.7576949032
C         19.9206959586       20.1121719770       22.2299969753
H         20.5734784844       20.8803734011       21.7932720872
H         18.8978802173       20.5105649656       22.1838918289
C         20.0179715522       18.8259213943       21.3776060072
H         21.0268715552       18.4006923463       21.4681904886
H         19.3162783386       18.0712728653       21.7558593754
C         19.7076187108       19.1023596269       19.8914533544
H         20.4099839293       19.8505885058       19.4986812453
H         18.6997366406       19.5298301568       19.7970811474
C         19.8009591360       17.8181066393       19.0432573907
H         19.0854351776       17.0628391811       19.3939558922
H         20.8088089386       17.3857201589       19.0949616548
H         19.5779439282       18.0329873813       17.9900892343
    22
VM2 Rank=3      G=-16.125           E=-35.802           -TS=19.677              
C         20.1334304479       19.1302487976       25.9559582079
O         19.6137670862       19.9158249568       26.7236558962
O         20.6479353633       18.0869140177       26.3070150199
C         20.1189012156       19.4613437951       24.4678913453
H         21.0340827228       19.0510606087       24.0264255309
H         20.1662446066       20.5516960369       24.3615176836
C         18.8654286668       18.9068744898       23.7422863953
H         18.8531448931       17.8107007293       23.8170053513
H         17.9680265579       19.2634500402       24.2666596426
C         18.7730138139       19.3308713222       22.2572004621
H         18.7754833509       20.4272425254       22.1867833363
H         17.8054428166       18.9959896849       21.8588930821
C         19.9060040826       18.7496900197       21.3802529123
H         20.8769997267       19.1336635944       21.7188891892
H         19.9349600346       17.6573871181       21.4940116153
C         19.7144656392       19.1070653402       19.8913016577
H         19.6830903940       20.1991639476       19.7738263715
H         18.7486558907       18.7199324338       19.5380702518
C         20.8470536846       18.5301672609       19.0184381033
H         21.8228724679       18.9259925919       19.3290736416
H         20.6948202419       18.7932816024       17.9636063055
H         20.8815948196       17.4353527760       19.0931537293
    22
VM2 Rank=4      G=-16.120           E=-35.794           -TS=19.673              
C         19.9961375301       19.0328147016       25.9874446370
O         20.3223764105       20.0799999662       26.5103614992
O         20.4207300031       17.9476405406       26.3317895030
C         19.0154580881       19.0852736157       24.8213227035
H         18.3317676623       19.9261493870       24.9889902594
H         18.4134351915       18.1688473453       24.8408349108
C         19.7191220506       19.2327413359       23.4496803562
H         20.3245393210       20.1496780781       23.4494195479
H         20.4115993570       18.3915515989       23.3142419080
C         18.7021906457       19.2786733192       22.2857210867
H         17.9735714677       20.0776872591       22.4797609609
H         18.1326684383       18.3397372509       22.2536027524
C         19.3549594798       19.5356517856       20.9068048408
H         18.5570140314       19.6777487298       20.1651736219
H         19.9214668425       20.4764321411       20.9373445889
C         20.2767267752       18.3874699498       20.4374320873
H         19.7250126244       17.4375112669       20.4573047756
H         21.1264169554       18.2793375089       21.1242308303
C         20.8122990169       18.6387347853       19.0134432863
H         21.4672201011       17.8169264326       18.6959868477
H         21.3921210461       19.5700705571       18.9709591998
H         19.9889375752       18.7139806769       18.2911061284
    22
VM2 Rank=5      G=-16.088           E=-35.761           -TS=19.674              
C         19.6002022044       19.0277014357       25.9802360832
O         19.2277984854       20.0659142999       26.4900422863
O         19.1925322301       17.9316719479       26.3103560585
C         20.6207055517       19.1060100858       24.8502939209
H         21.2451643598       18.2054761455       24.8920249476
H         21.2758771423       19.9642455422       25.0421220128
C         19.9634914190       19.2357667689       23.4540396600
H         19.2983970336       18.3769664250       23.2941028437
H         19.3349175104       20.1367039126       23.4314276010
C         21.0202846464       19.3085345747       22.3275576928
H         21.6146604599       18.3846393097       22.3164401520
H         21.7205353920       20.1260062338       22.5474439726
C         20.4113349434       19.5492675693       20.9258489039
H         19.8200929402       20.4751578065       20.9354754333
H         21.2316173676       19.7121747505       20.2134406596
C         19.5369342977       18.3779874054       20.4240408402
H         18.6661141936       18.2476645571       21.0798208448
H         20.1118430017       17.4425318522       20.4641599001
C         19.0467162218       18.6161459124       18.9815845543
H         18.4450453741       19.5322890480       18.9178700872
H         18.4250002682       17.7779400707       18.6410735282
H         19.8933543626       18.7129180384       18.2893456352
    22
VM2 Rank=6      G=-16.036           E=-35.714           -TS=19.677              
C         19.7328523190       19.2232739083       26.0947218312
O         20.1387779176       20.2914556332       26.5078355647
O         19.7906374088       18.1896808835       26.7309633765
C         19.1378574225       19.1728991139       24.6919918555
H         18.6461702340       20.1333095206       24.4957485339
H         18.3586613894       18.4013095606       24.6798252902
C         20.1959637447       18.8811009029       23.5995550869
H         20.9751652901       19.6552324650       23.6329352611
H         20.6881180467       17.9232408342       23.8181862617
C         19.5686830630       18.8351093135       22.1893245084
H         19.0739800795       19.7934261549       21.9842288636
H         18.7917627432       18.0590365437       22.1583261010
C         20.6295457663       18.5473344053       21.1021167011
H         21.3807623255       19.3489440179       21.0964065467
H         21.1634969205       17.6224071007       21.3596830172
C         20.0306642705       18.3899232403       19.6851225721
H         19.2832573241       17.5845074547       19.6854402463
H         20.8279662984       18.0729136660       18.9987900420
C         19.3950180876       19.6882225992       19.1423685036
H         18.5177118494       19.9818831386       19.7321149002
H         19.0659489032       19.5495386735       18.1043901721
H         20.1157601030       20.5160704954       19.1606491819
    22
VM2 Rank=7      G=-16.003           E=-35.680           -TS=19.677              
C         19.7434570635       19.0279097676       26.1022153009
O         19.6870847690       20.1073161801       26.6573375393
O         20.2602556348       18.0443285198       26.5940868879
C         19.1522605593       18.9066012830       24.7022220529
H         18.2944734838       19.5864904181       24.6344307892
H         18.7677995509       17.8866153630       24.5819160537
C         20.1772123461       19.2265210432       23.5863031869
H         20.5622926208       20.2457529203       23.7290997682
H         21.0352111156       18.5457597350       23.6754655291
C         19.5544515470       19.0967632133       22.1792931383
H         18.6985079454       19.7798834233       22.0923334788
H         19.1668292234       18.0778390251       22.0500261420
C         20.5825827695       19.4133948158       21.0689095475
H         21.0125702230       20.4074815875       21.2528581464
H         21.4159063359       18.6994226753       21.1213568414
C         19.9761052080       19.3965653700       19.6465149816
H         20.7373737614       19.7444505613       18.9346989344
H         19.1461293725       20.1142507171       19.5884031374
C         19.4865901028       17.9995998072       19.2071173647
H         20.2924014556       17.2582215911       19.2856153745
H         19.1488159018       18.0222701753       18.1629360254
H         18.6436535634       17.6588566853       19.8211664456
    22
VM2 Rank=8      G=-15.555           E=-35.435           -TS=19.880              
C         19.9959529539       19.0180741429       25.8023067398
O         20.5946472347       19.9817661966       26.2379268674
O         20.3756965550       17.8719605373       25.9401921961
C         18.6863141211       19.2616978664       25.0575758628
H         18.1021163087       19.9779633504       25.6472512296
H         18.1150188037       18.3256663530       25.0383356574
C         18.8715166518       19.8057692813       23.6172008058
H         17.8886763787       20.0804906240       23.2108819536
H         19.4689489792       20.7275216045       23.6503533054
C         19.5430969500       18.7803479529       22.6764168910
H         18.9492372464       17.8562425407       22.6570565977
H         20.5347072164       18.5133743738       23.0673677485
C         19.6887104377       19.3307995423       21.2414083104
H         18.6980559396       19.5958244577       20.8471702538
H         20.2826889367       20.2548619054       21.2615993481
C         20.3600077380       18.3076253454       20.3014524153
H         19.7677639907       17.3823485826       20.2775165711
H         21.3522087606       18.0415756134       20.6916550006
C         20.5040573578       18.8609591349       18.8695199114
H         19.5227148187       19.1061460493       18.4426165644
H         20.9830004610       18.1209888158       18.2151942130
H         21.1190845427       19.7703818453       18.8599078056
