   152
FE Rank=1      G=612.682           E=411.127           -TS=201.554              
C         16.2972221982       15.2971736965       20.7364348434
H         15.2990679597       14.9848906416       20.4054183325
O         16.3723691641       16.7210763836       20.9461783033
C         16.6640867336       14.5959178391       22.0715697184
H         16.6416428878       13.5139960372       21.8866048337
O         15.7167275932       14.9078671606       23.1048096090
H         15.4385249923       15.8507563448       22.9840146046
C         18.1000067392       14.9664190728       22.5178051934
H         18.1292822142       16.0409711225       22.7447573542
O         18.4346476149       14.2125692898       23.6889378384
H         17.6228055460       14.2429543386       24.2446547037
C         19.0985167313       14.6795746163       21.3661774018
H         19.1583644326       13.5943541951       21.2097735384
C         18.6446273697       15.3496501245       20.0429349322
H         18.6720020158       16.4378251025       20.1775775498
O         17.2874411107       14.9389690568       19.7461770637
C         19.5507770676       15.0150873250       18.8303059030
H         20.4275112981       15.6741021091       18.8599790654
H         19.0039611629       15.2484230132       17.9070388522
O         19.9858507232       13.6499617439       18.8171773252
H         20.5997312809       13.5306440617       19.5753500754
C         14.5662538215       20.3631403264       20.4799792964
H         13.9504042180       21.2472824354       20.2707485811
O         15.9320255311       20.7310441647       20.7836209687
C         13.9596323272       19.5102294251       21.6258312809
H         13.0054861825       19.1115745209       21.2567944506
O         13.7020873238       20.2807788857       22.8079379554
H         14.5839320720       20.5362934876       23.1773138401
C         14.8855786611       18.3098971144       21.9339427217
H         15.8373522441       18.6972988104       22.3208868946
O         14.2731819201       17.4716749413       22.9176839846
H         13.9181115114       18.0876184148       23.5969599552
C         15.1845595031       17.4851607814       20.6562684286
H         14.3160151604       16.8463127324       20.4518861241
C         15.4980056451       18.3635356035       19.4090231361
H         16.5190885664       18.7428703243       19.5151945201
O         14.5972067537       19.4975041254       19.3252262791
C         15.4451243483       17.5884106801       18.0697812440
H         16.2811819308       16.8765882882       18.0384739280
H         15.5993976577       18.3042455441       17.2515023667
O         14.2051047219       16.8952952179       17.8816706638
H         14.2544918109       16.0473779761       18.3704626125
C         18.4734453591       23.5956888597       22.3228856082
H         18.9369899123       24.4743704983       22.7892998162
O         19.4477517009       22.7835671134       21.6366168751
C         17.7691438361       22.7319904083       23.3977057716
H         17.0112554829       23.3651098336       23.8773000172
O         18.6959770864       22.2620854675       24.3915071426
H         19.4953049129       22.8403046246       24.3389069823
C         17.0563314265       21.5244272447       22.7535789991
H         17.8270705102       20.8582293139       22.3584420577
O         16.3182718854       20.8457842409       23.7715434595
H         16.9323689083       20.8209880876       24.5404601033
C         16.1482738422       21.9276989811       21.5631637203
H         15.2115534423       22.3492858834       21.9506666468
C         16.8385922314       22.9466834737       20.6115863352
H         17.6054745995       22.4091074295       20.0394627386
O         17.4762961206       24.0087518120       21.3651020289
C         15.8687908050       23.5821770957       19.5869738821
H         15.5787731468       22.8124384289       18.8589963178
H         16.4048774578       24.3669463019       19.0365515654
O         14.6984969076       24.1226242789       20.2129407222
H         14.1694368405       24.5725320763       19.5183882184
C         23.6077664819       22.6617505667       21.2295524687
H         24.6570862333       22.9329540358       21.0583664608
O         23.4370278594       21.2385506473       21.3738080563
C         23.0971370275       23.3305894564       22.5297258571
H         23.1997144673       24.4160698901       22.4012414351
O         23.8807980742       22.9156869249       23.6602416731
H         24.2150385045       22.0035500278       23.4691763038
C         21.5993693370       23.0206291673       22.7670933568
H         21.4968207738       21.9463293308       22.9727630159
O         21.1526939582       23.7776865822       23.8969655901
H         21.8859042635       23.7052707350       24.5501521622
C         20.7624653851       23.3582046825       21.5033879106
H         20.7122877154       24.4485127961       21.3858750709
C         21.3840797163       22.7410542767       20.2222844557
H         21.3032378382       21.6506362046       20.2973162104
O         22.7828525444       23.1059282317       20.1312665190
C         20.6668959691       23.1611413149       18.9151602900
H         19.7256258837       22.6021940978       18.8401402747
H         21.2897598323       22.8631343883       18.0613963206
O         20.3922886849       24.5655502540       18.8591413197
H         19.6746253748       24.7511270635       19.5028209076
C         25.2120759729       17.5641495215       20.7488540625
H         25.8427739612       16.7049472162       20.4869428929
O         23.8719429803       17.1525520021       21.0901623850
C         25.8322527266       18.3945111421       21.9063351254
H         26.7768839890       18.8100847623       21.5317465350
O         26.1123478531       17.5950303729       23.0643386779
H         25.2403057560       17.3026092320       23.4299791969
C         24.9036525430       19.5788716712       22.2671149091
H         23.9659426529       19.1717714113       22.6681028376
O         25.5294114590       20.4055345104       23.2532925403
H         25.9108962277       19.7814197391       23.9102582203
C         24.5680764896       20.4243511659       21.0139494528
H         25.4516088539       21.0238106508       20.7595010116
C         24.1582704794       19.5579143272       19.7894639174
H         23.1596314789       19.1478434515       19.9827735014
O         25.0949324918       18.4614457304       19.6218326731
C         24.0646961733       20.3440718449       18.4580537645
H         23.1427768039       20.9399382348       18.4648196716
H         23.9757564788       19.6221936819       17.6353407215
O         25.1894619264       21.2024394183       18.2373539566
H         24.9888016317       22.0638570615       18.6623952609
C         21.2646628957       14.3374343247       22.4141795320
H         20.7207897506       13.4756622050       22.8216894197
O         20.3849874325       15.2302103442       21.7015268242
C         21.9384263168       15.1231029985       23.5630906988
H         22.6057565457       14.4274502582       24.0884850259
O         20.9537997888       15.6401727857       24.4768851762
H         20.1547459337       15.0628058586       24.3937901349
C         22.7785403310       16.2966808190       23.0182179587
H         22.0749988475       17.0458976367       22.6531553934
O         23.5369202987       16.8607634063       24.0913611836
H         22.9513907115       16.7968628765       24.8790286715
C         23.6889316398       15.9226956820       21.8195388769
H         24.6340174803       15.5077124090       22.1933435978
C         23.0200158086       14.9387297789       20.8163202478
H         22.3111614023       15.5137317717       20.2072866208
O         22.2937360706       13.8935258144       21.5076545639
C         24.0226138981       14.2816390377       19.8382579578
H         24.3880672829       15.0514684332       19.1452810202
H         23.4884588928       13.5312922252       19.2399423871
O         25.1284645820       13.6789846463       20.5215093824
H         25.6803884200       13.2209847972       19.8503293924
N         20.4899254895       18.5930276438       24.1840468028
H         21.4674879451       18.9186210817       24.1441698173
H         20.5349336163       17.5546131866       24.1485840165
C         19.6988396535       19.1472863503       23.0163709710
H         19.6188288992       20.2282858688       23.1608015057
H         18.6939008542       18.7196350916       23.0641259000
C         20.3203579695       18.8652259417       21.6370293118
H         21.3088151895       19.3395809047       21.5774575347
H         20.4645248995       17.7873025559       21.5161177414
C         19.4202577469       19.3583821382       20.4865464286
H         19.2113177751       20.4281252877       20.6032638431
H         18.4546519277       18.8408310345       20.5462433858
C         20.0709721093       19.1111468127       19.1076919346
H         21.0014365873       19.6880578003       19.0357584029
H         20.3507599659       18.0540205564       19.0119564282
C         19.1344294651       19.5005548311       17.9442054149
H         18.7874728687       20.5353078600       18.0690874126
H         18.2406966542       18.8637728386       17.9598721614
C         19.8359327098       19.3553963668       16.5777713612
H         20.7152317756       20.0093822792       16.5124440538
H         19.1540537591       19.6271650770       15.7615148278
H         20.1654409867       18.3216551071       16.4103204677
C         19.8385363399       19.0420947576       25.4829157744
H         18.8201323763       18.6502540544       25.5257806683
H         20.4179462559       18.6580417717       26.3252037814
H         19.8156796203       20.1342635824       25.5135628183
