    20
VM2 Rank=1      G=-21.888           E=-37.136           -TS=15.247              
C         20.4454575431       18.0660378181       18.7398765726
H         20.6596862417       17.7973903073       17.7068588987
H         20.5833086745       17.2882868003       19.4879728745
C         20.0331543809       19.2995293069       19.0535938831
H         19.9135069325       20.0362291890       18.2594998975
C         19.6972470298       19.8196749996       20.4412633815
H         18.6643302127       20.1927750407       20.4377344992
H         20.3271541316       20.6942166076       20.6522782750
C         19.8604975489       18.7896986653       21.5833999682
H         19.2167413701       17.9208953031       21.3888637451
H         20.8976051577       18.4277627770       21.6056998039
C         19.5002842859       19.3965527319       22.9570778524
H         18.4635702610       19.7606700121       22.9412665258
H         20.1409883895       20.2665380386       23.1576560104
C         19.6629808809       18.3671264106       24.1024553155
H         19.0193089540       17.4973314574       23.9242807938
H         20.6967563060       18.0031851183       24.1406417939
C         19.3129561190       18.9429645407       25.4698898140
O         20.1971351374       19.4750778485       26.1115508161
O         18.1612870741       18.8613376784       25.8488923966
    20
VM2 Rank=2      G=-21.881           E=-36.773           -TS=14.892              
C         19.7354634892       18.4518980119       18.2412128828
H         20.2194202924       18.0463522144       17.3543107128
H         18.6525866812       18.3593663100       18.3075969476
C         20.4462855024       19.0371314217       19.2086232224
H         21.5296255241       19.1189680890       19.1229606152
C         19.8446087920       19.6233218540       20.4663955595
H         18.7575261273       19.7331761502       20.3524274897
H         20.2484222441       20.6311752578       20.6316575889
C         20.1458023169       18.7373343256       21.6932470003
H         19.7434037174       17.7294149455       21.5211917997
H         21.2332120823       18.6313177612       21.8094549827
C         19.5409779994       19.3233395889       22.9875804720
H         18.4530498790       19.4285500971       22.8736853150
H         19.9425217588       20.3314452583       23.1610669109
C         19.8424518216       18.4339143002       24.2188477896
H         19.4360728161       17.4267166724       24.0671154948
H         20.9256235945       18.3295481000       24.3546780533
C         19.2549377077       18.9919567716       25.5101278003
O         19.9340556381       19.7575368784       26.1653642402
O         18.1264167327       18.6615668476       25.8166010328
    20
VM2 Rank=3      G=-21.822           E=-36.714           -TS=14.892              
C         19.8356122624       18.3569129434       18.2568647150
H         19.5624601903       18.6708168677       17.2508191142
H         19.7741600455       17.2937872549       18.4839730914
C         20.2277369057       19.2447792401       19.1742416390
H         20.2815784049       20.3047177497       18.9266713701
C         20.6225754781       18.8837963321       20.5889567498
H         21.5741591496       19.3709985611       20.8404845843
H         20.7899494091       17.8012988594       20.6725578211
C         19.5375156931       19.3154654636       21.5975006207
H         19.3736244808       20.3988926624       21.5166974409
H         18.5868884501       18.8286858317       21.3390785364
C         19.9262979476       18.9569040703       23.0482931827
H         20.8770096733       19.4429071734       23.3082155958
H         20.0888477298       17.8732486307       23.1313376880
C         18.8372615587       19.3895506074       24.0606170901
H         18.6721822082       20.4719847434       23.9998921702
H         17.8840570116       18.9022555720       23.8227994318
C         19.1983074353       19.0457624748       25.5012570862
O         19.8214159540       19.8648008321       26.1474463994
O         18.8642767649       17.9600280363       25.9328225171
    20
VM2 Rank=4      G=-21.275           E=-36.308           -TS=15.032              
C         19.2309018785       18.4037267148       18.7286615062
H         18.2505178433       18.2555985043       18.2791045033
H         20.0631010342       17.8369247366       18.3143124898
C         19.4012905091       19.2464206337       19.7506746669
H         18.5551666473       19.8061893418       20.1481974975
C         20.7334205007       19.5075323307       20.4207808125
H         20.8635571067       20.5851997731       20.5873881004
H         21.5500414552       19.1988792766       19.7541345598
C         20.8758278051       18.7515498698       21.7610312100
H         20.7291908246       17.6760344105       21.5905248755
H         21.9037150713       18.8743685704       22.1287822315
C         19.8878733277       19.2503545260       22.8404667643
H         18.8540440787       19.0971886352       22.5022085981
H         20.0179530091       20.3309822495       22.9910727425
C         20.0917464823       18.5177925051       24.1894851966
H         19.9533301723       17.4378762363       24.0582202126
H         21.1144709336       18.6719632833       24.5539025522
C         19.1275860582       18.9910080557       25.2713872571
O         19.4621367862       19.9295065183       25.9670848023
O         18.0602166523       18.4201088459       25.3784277840
    20
VM2 Rank=5      G=-21.252           E=-36.284           -TS=15.032              
C         21.2428185503       19.0105017098       18.9879691195
H         20.9772908040       18.1128589921       18.4318776676
H         22.2181406511       19.4520972670       18.7906433456
C         20.4087648840       19.5501131221       19.8806347725
H         20.6932258591       20.4506990412       20.4240651556
C         19.0371043088       18.9959756836       20.2019949662
H         18.7024072609       18.3401700805       19.3868565376
H         18.3066613062       19.8141577150       20.2576120119
C         19.0218340434       18.1924545220       21.5219089424
H         18.0410824573       17.7095448602       21.6305570780
H         19.7653681400       17.3853818982       21.4662330961
C         19.2948219247       19.0715227667       22.7639886740
H         18.5664997078       19.8932992958       22.8038477380
H         20.2900261599       19.5302130796       22.6874696056
C         19.2152030393       18.2534921881       24.0764453531
H         18.2223034438       17.7998601212       24.1808531169
H         19.9453454665       17.4354883590       24.0572246460
C         19.4823781972       19.0980204977       25.3171854217
O         20.6283255154       19.1944133975       25.7098350439
O         18.5397495368       19.6515061125       25.8480377067
    20
VM2 Rank=6      G=-21.152           E=-36.159           -TS=15.007              
C         19.7216374042       18.9158153549       18.3062986227
H         18.7429071233       19.3926352015       18.3238882745
H         20.2153375796       18.8208957062       17.3406325688
C         20.2985322021       18.4656335047       19.4235285268
H         21.2792601520       17.9920692901       19.3842833320
C         19.6744535544       18.5614469210       20.7979626735
H         19.7373498037       17.5830399249       21.2907230465
H         18.6070854964       18.8069347591       20.7139661270
C         20.3831446968       19.6339411540       21.6554735084
H         21.4373322249       19.3580500284       21.7953475764
H         20.3819044861       20.5845779994       21.1044498157
C         19.7172136511       19.8615572891       23.0334822670
H         18.6661948404       20.1505598133       22.8948092624
H         20.2097280173       20.7111130734       23.5266153260
C         19.7959038357       18.6281580286       23.9702346528
H         19.2360339746       17.7859064737       23.5484507612
H         20.8373469490       18.3038445647       24.0824868759
C         19.2353249466       18.9074478532       25.3600961644
O         19.9947467331       19.3261166765       26.2114059499
O         18.0500429761       18.7178832181       25.5495176345
    20
VM2 Rank=7      G=-21.139           E=-36.251           -TS=15.112              
C         18.6393425313       19.5605859437       19.3942700011
H         17.7307807010       19.2233306011       18.8984084988
H         18.7041241934       20.6146752799       19.6590654699
C         19.6321746980       18.7103481880       19.6688468989
H         19.5463691651       17.6585037560       19.3974552189
C         20.9227009133       19.1046117493       20.3551978651
H         21.0141507836       20.1980110965       20.4080296365
H         21.7710985748       18.7516901108       19.7539388131
C         21.0364256701       18.5081597617       21.7762019441
H         20.9442395437       17.4146379701       21.7233270572
H         22.0394534235       18.7206014502       22.1707735443
C         19.9772777270       19.0766493661       22.7481116052
H         18.9685277622       18.8471361842       22.3780080734
H         20.0600689359       20.1716236071       22.7863761711
C         20.1376139712       18.5004557302       24.1765064402
H         20.0447731455       17.4079555298       24.1562929553
H         21.1341409483       18.7343158798       24.5698628929
C         19.1032074354       19.0462065732       25.1543876921
O         19.3629449999       20.0730982445       25.7500210039
O         18.0593120539       18.4378844432       25.2844565493
    20
VM2 Rank=8      G=-21.129           E=-36.241           -TS=15.112              
C         20.3968780880       17.5036873602       19.6231929725
H         19.9729721247       16.5990901999       19.1906282515
H         21.4122515625       17.4452453298       20.0118053741
C         19.6939031731       18.6381259031       19.6769198032
H         18.6779694034       18.6747222682       19.2845776132
C         20.2147407874       19.9331783595       20.2630463958
H         20.0716952073       20.7406039430       19.5326725161
H         21.2961245389       19.8680091928       20.4448107056
C         19.4931104687       20.3143512936       21.5752572183
H         19.8208927710       21.3170536990       21.8818981223
H         18.4114909144       20.3788053337       21.3935167448
C         19.7729863902       19.3157138439       22.7215458082
H         20.8561059184       19.2399243599       22.8900541364
H         19.4248181011       18.3130577143       22.4374888374
C         19.0780420900       19.7405821849       24.0385727072
H         19.4259913285       20.7335578902       24.3474674447
H         17.9937529414       19.8084943578       23.8892720009
C         19.3389404283       18.7703052518       25.1851267884
O         20.3234031075       18.9490003477       25.8748010188
O         18.5589954668       17.8530554553       25.3495372876
