    22
VM2 Rank=1      G=-16.999           E=-36.566           -TS=19.568              
C         19.8314285459       19.1340994916       26.1874713149
O         20.0589377237       20.2373126010       26.6430942887
O         20.1742765778       18.0999167930       26.7253861150
C         19.0946106800       19.0430778051       24.8559193026
H         18.3977692115       19.8875904726       24.7936844602
H         18.4930918265       18.1261221207       24.8613381951
C         20.0505963341       19.0480162955       23.6376751850
H         20.6546103944       19.9658787749       23.6541072703
H         20.7498252601       18.2044554457       23.7216838955
C         19.2807921699       18.9551884910       22.3025103270
H         18.5818518613       19.7991202930       22.2222889292
H         18.6771200545       18.0372591156       22.2898448636
C         20.2363108516       18.9603651996       21.0899730837
H         20.8402626688       19.8780884293       21.1023539556
H         20.9353533025       18.1165054639       21.1697688411
C         19.4676805635       18.8678005670       19.7551672849
H         18.7687422266       19.7115068558       19.6707819304
H         18.8637808880       17.9499262535       19.7382056741
C         20.4253665536       18.8732227564       18.5468030981
H         21.0202537376       19.7956443987       18.5212265144
H         19.8624275318       18.8068375564       17.6067042207
H         21.1160594163       18.0208412271       18.5891922136
