    20
VM2 Rank=1      G=27.004            E=4.315             -TS=22.689              
N         19.7357395994       18.9392011612       25.6478599550
H         18.8386615684       19.4316276786       25.7040382045
H         19.5329667580       17.9362618010       25.7060139227
H         20.2631072592       19.1851779920       26.4922403351
C         20.4972914696       19.2911322404       24.3858481683
H         21.4510663741       18.7569253871       24.4071288963
H         20.7046492029       20.3645147718       24.4050214549
C         19.7325955011       18.9343868715       23.0985110658
H         19.5126986204       17.8584426870       23.0909556006
H         18.7685853361       19.4603748624       23.0890452078
C         20.5421218717       19.3089315623       21.8371167501
H         21.5080948799       18.7850493413       21.8524644507
H         20.7647603234       20.3850561204       21.8505263648
C         19.7839001143       18.9550988297       20.5381029457
H         19.5611566479       17.8789533035       20.5195368757
H         18.8177251069       19.4786809736       20.5177253129
C         20.5963514438       19.3312493349       19.2805611152
H         21.5547019885       18.7963524605       19.2547826686
H         20.0419758676       19.0725991934       18.3690725938
H         20.8054389048       20.4086242056       19.2529761226
