    17
VM2 Rank=1      G=-26.660           E=-36.826           -TS=10.165              
C         20.1216153500       19.0267550670       25.0643091476
O         21.2293373345       19.3332840012       25.4593216077
O         19.0985043326       19.5456078625       25.4656525040
C         20.0076215863       17.9136311431       24.0271924536
H         19.0746309624       17.3709205698       24.2188542013
H         20.8161049599       17.1972216500       24.2138783264
C         20.0479306757       18.3594515489       22.5718603669
H         19.9642439178       17.5396076931       21.8612938359
C         20.1727382500       19.6232989133       22.1416523716
H         20.2559494308       20.4371197552       22.8608292530
C         20.2150097797       20.0871855432       20.6950153453
H         19.4079494458       20.8139391531       20.5307194002
H         21.1486292390       20.6406338469       20.5260247690
C         20.1002426912       18.9627859208       19.6419962033
H         20.1391557855       19.3804780183       18.6275721725
H         20.9245143708       18.2443513724       19.7411513190
H         19.1510023190       18.4209736593       19.7458471764
