    25
VM2 Rank=1      G=-7.962            E=-32.361           -TS=24.399              
C         20.1600929375       19.3401444968       27.8084374504
O         21.2157055408       19.7049891687       28.2871760149
O         19.0777426013       19.5690069007       28.3111914074
C         20.1941384294       18.5724032295       26.4918164013
H         19.3547163079       17.8667453130       26.4872180760
H         21.1163698027       17.9795468862       26.4669631834
C         20.1205550444       19.4990601093       25.2533048894
H         19.1984374018       20.0949548805       25.3002188442
H         20.9599710542       20.2077653841       25.2799462248
C         20.1566173319       18.6986253814       23.9334491797
H         19.3170894787       17.9902131281       23.9105737468
H         21.0790105184       18.1032283735       23.8901606075
C         20.0828984499       19.6249649218       22.7005976415
H         19.1605705543       20.2204143987       22.7436745021
H         20.9223486697       20.3334246107       22.7232259846
C         20.1188703176       18.8252100851       21.3803798507
H         19.2795136840       18.1166541271       21.3574443842
H         21.0411501697       18.2297183123       21.3369531853
C         20.0451139401       19.7509737487       20.1479509171
H         19.1227620140       20.3469889404       20.1869748529
H         20.8843904858       20.4600310166       20.1664599353
C         20.0812654071       18.9486219580       18.8316962475
H         19.2340021982       18.2529069493       18.7723324507
H         20.0279588003       19.6221056110       17.9664415199
H         21.0088874875       18.3668081261       18.7516441197
