    20
VM2 Rank=1      G=27.004            E=4.315             -TS=22.689              
N         19.7357395994       18.9392011612       25.6478599550
H         18.8386615684       19.4316276786       25.7040382045
H         19.5329667580       17.9362618010       25.7060139227
H         20.2631072592       19.1851779920       26.4922403351
C         20.4972914696       19.2911322404       24.3858481683
H         21.4510663741       18.7569253871       24.4071288963
H         20.7046492029       20.3645147718       24.4050214549
C         19.7325955011       18.9343868715       23.0985110658
H         19.5126986204       17.8584426870       23.0909556006
H         18.7685853361       19.4603748624       23.0890452078
C         20.5421218717       19.3089315623       21.8371167501
H         21.5080948799       18.7850493413       21.8524644507
H         20.7647603234       20.3850561204       21.8505263648
C         19.7839001143       18.9550988297       20.5381029457
H         19.5611566479       17.8789533035       20.5195368757
H         18.8177251069       19.4786809736       20.5177253129
C         20.5963514438       19.3312493349       19.2805611152
H         21.5547019885       18.7963524605       19.2547826686
H         20.0419758676       19.0725991934       18.3690725938
H         20.8054389048       20.4086242056       19.2529761226
    20
VM2 Rank=2      G=27.307            E=4.518             -TS=22.789              
N         20.6069331928       18.3919965722       25.0323825854
H         20.9677055657       18.5359363630       25.9814065404
H         19.9889539007       17.5753360726       25.0694942737
H         21.4067520891       18.1400394508       24.4442940050
C         19.8878927942       19.6213510178       24.5112751050
H         20.5932961516       20.4566807516       24.5202488941
H         19.0784905012       19.8525285254       25.2091560877
C         19.3061990824       19.4489944618       23.0944287685
H         18.6022372519       18.6061781491       23.0872724870
H         18.7228390682       20.3460044356       22.8473804631
C         20.3992432450       19.2367929659       22.0199901359
H         20.9647526387       18.3209214035       22.2376769551
H         21.1153239906       20.0696056718       22.0565230725
C         19.7979695091       19.1367974247       20.6001632677
H         19.0801823788       18.3054623118       20.5588339320
H         19.2354393995       20.0524190820       20.3694756511
C         20.8897621765       18.9240675576       19.5297601376
H         21.4475213642       17.9964527303       19.7131410540
H         20.4435974588       18.8561684379       18.5290793473
H         21.6046230762       19.7572213207       19.5236665790
    20
VM2 Rank=3      G=27.347            E=4.558             -TS=22.789              
N         19.8797708051       19.9562762280       25.0304546327
H         18.8570338233       20.0103479045       25.0664437905
H         20.2214380785       20.1411991692       25.9794478330
H         20.2033204473       20.7289717486       24.4411336102
C         20.3566032097       18.6130542560       24.5125111521
H         20.0109203772       17.8466513662       25.2116127157
H         21.4499228195       18.6138874663       24.5225200061
C         19.8512017794       18.2765944955       23.0958643148
H         20.1611627972       17.2518912351       22.8511708690
H         18.7530855203       18.2816824916       23.0876658069
C         20.3945689820       19.2468596218       22.0199792227
H         21.4928224085       19.2575208153       22.0574984158
H         20.0587351092       20.2700213497       22.2353065824
C         19.9318169132       18.8488047339       20.6005259997
H         20.2693272667       17.8280308105       20.3722116989
H         18.8335964291       18.8359472960       20.5582109073
C         20.4740383106       19.8184106647       19.5286646780
H         21.5718077228       19.8277300077       19.5235387390
H         20.1353879054       19.5191173740       18.5282777605
H         20.1243603706       20.8431791440       19.7096838581
    20
VM2 Rank=4      G=27.505            E=4.721             -TS=22.784              
N         19.9685908766       18.6227272121       25.4433768414
H         19.0579647794       18.1527780522       25.4595832149
H         20.6123035008       18.0427084195       25.9917960724
H         19.8602343048       19.5067693003       25.9504192253
C         20.4698460991       18.8383189515       24.0296452353
H         20.5905170057       17.8570510469       23.5635364394
H         21.4524878960       19.3140999583       24.0887203416
C         19.5241294663       19.7072422815       23.1787163270
H         18.5368124363       19.2300298941       23.1200786552
H         19.3767869166       20.6732780035       23.6797023383
C         20.0652841665       19.9595053443       21.7514698263
H         21.0416372257       20.4601441340       21.8125559817
H         19.3907027755       20.6578331249       21.2369474272
C         20.1938318586       18.6663279726       20.9117676541
H         20.9045022780       17.9754835015       21.3853780567
H         19.2245606696       18.1494274493       20.8759617184
C         20.6663175329       18.9658782380       19.4730241161
H         20.7528001662       18.0383510346       18.8922842994
H         19.9575621292       19.6234443400       18.9529455586
H         21.6490276507       19.4552645867       19.4740077917
    20
VM2 Rank=5      G=27.621            E=4.823             -TS=22.798              
N         19.4823328295       19.4057033898       25.4133162841
H         19.0969197702       20.3464569372       25.2837960504
H         18.6900817519       18.7559311772       25.4356707763
H         19.9097100739       19.3853483727       26.3452585084
C         20.4786295924       19.0472055849       24.3291317094
H         20.8694279744       18.0494775030       24.5466350272
H         21.3066370241       19.7592747879       24.3826738855
C         19.8688504703       19.0677560446       22.9159718603
H         19.0278124257       18.3631489489       22.8712939094
H         19.4643805979       20.0678931192       22.7154826644
C         20.9188969136       18.6940439446       21.8431812577
H         21.3666741064       17.7247241900       22.1032885067
H         21.7385230325       19.4259031044       21.8566932359
C         20.3340026636       18.5983279126       20.4130034346
H         21.1167736039       18.2285158013       19.7359164723
H         19.5294794837       17.8499511761       20.3895284713
C         19.8052875305       19.9469631235       19.8733954539
H         20.5831505892       20.7205361837       19.9124814408
H         19.4872243546       19.8441249142       18.8278270136
H         18.9396324116       20.2999441646       20.4473892784
    20
VM2 Rank=6      G=27.631            E=4.833             -TS=22.799              
N         19.9289435010       18.4438227802       25.4143999998
H         20.1881723751       18.7853106805       26.3459406731
H         18.9213519241       18.2576734978       25.4361170002
H         20.3992736225       17.5422046215       25.2870825392
C         20.2988040905       19.4342591367       24.3286666433
H         21.3770021196       19.6076211178       24.3828953229
H         19.7883925422       20.3769465002       24.5438726030
C         19.9224426205       18.9523724938       22.9160783878
H         20.4256715872       17.9976018019       22.7179923570
H         18.8414959011       18.7644770093       22.8706725387
C         20.3156632019       19.9935553319       21.8416271577
H         21.4036575879       20.1473485156       21.8558946082
H         19.8639572615       20.9616746249       22.0994019909
C         19.8664681244       19.6057445175       20.4117670645
H         18.7755840269       19.4743793793       20.3874313658
H         20.0900560605       20.4409192571       19.7332168251
C         20.5556784617       18.3302457399       19.8754607468
H         20.2657101163       17.4424140841       20.4508713817
H         20.2729999502       18.1516768555       18.8299186287
H         21.6485803261       18.4249399453       19.9156185402
    20
VM2 Rank=7      G=27.903            E=5.021             -TS=22.881              
N         19.4804837095       19.1732103204       25.1477319851
H         18.8425648308       19.8673239778       24.7474745894
H         18.9743209537       18.2829563683       25.1856919219
H         19.6589675191       19.4559433468       26.1171169973
C         20.7649095597       19.0591627851       24.3493562444
H         21.4081133278       18.3370472101       24.8596862865
H         21.2644086628       20.0315784782       24.3680420881
C         20.5553574020       18.6116817458       22.8893178268
H         21.5429733570       18.4473893341       22.4407290960
H         20.0379709902       17.6433056621       22.8735428161
C         19.7662263908       19.6499967296       22.0524861295
H         20.3013956772       20.6097160214       22.0539772126
H         18.7935966670       19.8379580839       22.5260570850
C         19.5138170300       19.2014017167       20.5923385646
H         18.9664367944       18.2484107024       20.5853859264
H         18.8561778874       19.9362087255       20.1070460427
C         20.8072059081       19.0645467024       19.7567692496
H         21.3890194664       19.9952519121       19.7736199857
H         21.4447670834       18.2530935089       20.1286972803
H         20.5657869457       18.8393783163       18.7098865260
    20
VM2 Rank=8      G=27.907            E=5.001             -TS=22.906              
N         19.8955146924       19.9224953589       24.9639111427
H         20.6352788367       20.6232621687       24.8552462648
H         19.0607528342       20.2885756753       24.4967960933
H         19.6790939312       19.8701285434       25.9648605200
C         20.3084476259       18.5741605966       24.4060338469
H         19.4885459255       17.8710421419       24.5757735322
H         21.1751379590       18.2300293092       24.9770113621
C         20.6638230753       18.6042097192       22.9067120790
H         21.4885409735       19.3102657801       22.7469933342
H         21.0377869439       17.6129129965       22.6182631899
C         19.4529276015       18.9756858942       22.0145267618
H         19.1233443327       19.9999543120       22.2342903652
H         18.6089933773       18.3177597840       22.2645871478
C         19.7441340286       18.8485316089       20.4995046493
H         20.0466094799       17.8185635989       20.2638610389
H         18.8128332718       19.0292769104       19.9445897150
C         20.8231529764       19.8349168222       19.9973115204
H         21.8042446294       19.6180305576       20.4376378603
H         20.9289525657       19.7660559419       18.9068996374
H         20.5567423764       20.8709840807       20.2434401921
