    26
VM2 Rank=1      G=48.261            E=15.909            -TS=32.352              
C         19.9052420576       19.3106543774       18.8162318403
H         20.2945394039       20.3369141828       18.7942564233
H         20.2786888902       18.7894590458       17.9251977069
H         18.8107838950       19.3584959947       18.7447011602
C         20.3457234401       18.5775995448       20.1010414976
H         21.4427189633       18.5157423358       20.1275437707
H         19.9704312751       17.5448508669       20.0783555286
C         19.8326675654       19.2912455397       21.3713904494
H         20.2083395884       20.3237315782       21.3883447436
H         18.7360161267       19.3526283447       21.3392440089
C         20.2719018430       18.5601574857       22.6601694521
H         21.3686241819       18.4989311121       22.6913083380
H         19.8961935415       17.5276669430       22.6421645690
C         19.7582874866       19.2745040098       23.9307797218
H         20.1339547717       20.3071341205       23.9492281085
H         18.6614430202       19.3359449087       23.9000079581
C         20.1968081810       18.5443018077       25.2192687556
H         21.2928323849       18.4854849884       25.2564167655
H         19.8187531846       17.5132652526       25.2071230883
C         19.6802385839       19.2637137151       26.4777028914
H         20.0676220309       20.2858648982       26.5026029008
H         18.5881247145       19.3101805812       26.4530588851
N         20.0901308425       18.5768235197       27.7644153917
H         19.7359452080       19.0719964838       28.5901411342
H         21.1094563375       18.5250166835       27.8621583725
H         19.7327987503       17.6171843555       27.8160694752
    26
VM2 Rank=2      G=48.509            E=16.054            -TS=32.455              
C         20.1408036704       19.6498920139       19.0008440369
H         19.1347359084       20.0853363938       18.9420319598
H         20.8620850980       20.4696395913       19.1148962728
H         20.3477000423       19.1494308438       18.0459714160
C         20.2455606034       18.6516022472       20.1732662722
H         21.2510114495       18.2079322590       20.1855464268
H         19.5369812525       17.8266845507       20.0140402967
C         19.9586346883       19.3310140730       21.5306030390
H         20.6678350868       20.1561761552       21.6841061278
H         18.9536249856       19.7749435647       21.5126617172
C         20.0624807591       18.3343305576       22.7071507753
H         21.0677701082       17.8909295098       22.7245410964
H         19.3536378348       17.5091421958       22.5519326532
C         19.7748026815       19.0142351493       24.0648724102
H         20.4826415914       19.8408145479       24.2124211956
H         18.7683022836       19.4550980347       24.0483761332
C         19.8800795360       18.0150757979       25.2412752461
H         20.8922480962       17.5914034719       25.2861044083
H         19.1958737944       17.1740749098       25.0664599615
C         19.5295085807       18.6544345147       26.5987332440
H         18.5244210940       19.0826092593       26.5553798435
H         19.5389668790       17.8847573148       27.3753119560
N         20.4891294806       19.7484156464       27.0242549763
H         20.2355040748       20.1436980822       27.9362702575
H         20.5021272361       20.5238216617       26.3545440910
H         21.4503976275       19.4013946427       27.1053537596
    26
VM2 Rank=3      G=48.526            E=16.071            -TS=32.455              
C         19.4925992866       19.2223557149       18.9791704388
H         18.4512318922       18.8791939731       19.0342499244
H         19.4900905363       20.3198997603       18.9539887328
H         19.9156196429       18.8645382119       18.0315053787
C         20.3139440638       18.6967625117       20.1755290408
H         21.3571914698       19.0275744221       20.0748980031
H         20.3263792467       17.5979764295       20.1545525649
C         19.7392202594       19.1862515483       21.5232616445
H         19.7266739965       20.2849090585       21.5385634966
H         18.6957582802       18.8551800051       21.6181244107
C         20.5592140079       18.6619584611       22.7237416549
H         21.6026573073       18.9926774354       22.6271039940
H         20.5711193328       17.5632674791       22.7079055117
C         19.9843945892       19.1524230687       24.0718755631
H         19.9752100371       20.2511985704       24.0887133607
H         18.9404407066       18.8233697559       24.1608974896
C         20.8061703229       18.6259124575       25.2722077339
H         21.8553854425       18.9283124885       25.1552412969
H         20.7959301132       17.5278351358       25.2829358563
C         20.2934156858       19.1583260144       26.6242397878
H         20.9605873442       18.8224960118       27.4227801807
H         20.2967120665       20.2516274037       26.6145189902
N         18.8920417846       18.6950102234       26.9709741362
H         18.8296446630       17.6727853804       27.0178981343
H         18.2058133235       19.0092297404       26.2779427920
H         18.5861553577       19.0558013886       27.8812532128
    26
VM2 Rank=4      G=48.731            E=16.280            -TS=32.451              
C         19.7687242223       18.8532960794       18.9896881484
H         20.5474789678       19.5749132912       18.7103064609
H         19.7777568566       18.0438575602       18.2482211695
H         18.7959402676       19.3581082474       18.9256660635
C         20.0121406244       18.2957702609       20.4081459108
H         20.9759157761       17.7680418439       20.4319682784
H         19.2378866729       17.5527303971       20.6455101934
C         20.0042447274       19.4156623405       21.4721698889
H         20.7777933344       20.1571311229       21.2286970681
H         19.0397949623       19.9414533256       21.4433289074
C         20.2481107980       18.8613559616       22.8940171644
H         21.2140533933       18.3383058164       22.9221514795
H         19.4755332536       18.1166881614       23.1278145723
C         20.2380741548       19.9853194808       23.9577946897
H         20.9812081250       20.7474324823       23.6850863693
H         19.2614552653       20.4891538724       23.9558527139
C         20.5520135952       19.4747124125       25.3837357147
H         20.6144347718       20.3343064225       26.0642881189
H         21.5388417730       18.9929848870       25.3943418315
C         19.4900792860       18.4915966185       25.9111282073
H         18.5077006465       18.9714278934       25.9018325795
H         19.4490432458       17.6098540863       25.2665210306
N         19.7676125919       18.0212868458       27.3243202758
H         19.7914143870       18.8015933161       27.9889846464
H         20.6681849447       17.5364525082       27.3958261071
H         19.0496428772       17.3681749598       27.6565319725
    26
VM2 Rank=5      G=48.734            E=16.283            -TS=32.451              
C         20.3709975976       19.2510001527       19.0098831150
H         20.2930543510       20.3455446310       18.9761216225
H         21.1451810111       18.9460682792       18.2938504188
H         19.4150879545       18.8295547725       18.6724445231
C         20.7212190253       18.7633602120       20.4317342463
H         21.6969321894       19.1736085338       20.7277057205
H         20.8257248991       17.6692957438       20.4264644352
C         19.6464314937       19.1797008153       21.4602573976
H         19.5440260424       20.2737595741       21.4604498256
H         18.6727754118       18.7694676319       21.1583737759
C         19.9935119291       18.6931095738       22.8854379974
H         20.9700462029       19.1017297246       23.1778000143
H         20.0931289320       17.5988093652       22.8843660964
C         18.9156187365       19.1127018535       23.9135955136
H         18.8362797455       20.2084016294       23.9415879368
H         17.9365294248       18.7387978843       23.5834247817
C         19.1951544879       18.5794236552       25.3383954212
H         19.2499795614       17.4828026534       25.3178999498
H         18.3493546998       18.8398383943       25.9885929722
C         20.4904066415       19.1515122797       25.9445289122
H         21.3465176296       18.8614760745       25.3300166501
H         20.4355828074       20.2432662108       25.9660034348
N         20.7476600883       18.6681914578       27.3571673967
H         20.8362685574       17.6477167740       27.4017661617
H         19.9905585574       18.9335049315       27.9956250349
H         21.6138845029       19.0602757165       27.7422978574
    26
VM2 Rank=6      G=48.855            E=16.392            -TS=32.463              
C         19.4449675999       18.1620482894       19.5242628996
H         19.4108147583       17.2841257513       20.1811692230
H         18.4489586975       18.6234387722       19.5137280239
H         19.6604898094       17.8056070273       18.5086657968
C         20.5208902012       19.1726973573       19.9822584503
H         20.6010946376       19.9695858943       19.2297041118
H         21.5023385463       18.6791719234       20.0130442063
C         20.2153038052       19.8164361075       21.3562769864
H         20.9648694239       20.5960873558       21.5502474596
H         19.2428991671       20.3262669519       21.3142489745
C         20.2241542846       18.8044829372       22.5271014262
H         21.1784708035       18.2599912769       22.5339105183
H         19.4317692708       18.0584644600       22.3821539313
C         20.0184485030       19.5030004758       23.8903651875
H         20.8116683342       20.2475569818       24.0458662659
H         19.0656506879       20.0506280625       23.8823144811
C         20.0229710527       18.4949841094       25.0606808706
H         20.9756672708       17.9488385335       25.0747745772
H         19.2276486849       17.7522999759       24.9124113410
C         19.8179649632       19.2009590882       26.4125671543
H         20.6170414773       19.9300033881       26.5720936755
H         18.8626603879       19.7328038435       26.4090436804
N         19.8162995902       18.2443916352       27.5874870251
H         19.0680692890       17.5474715877       27.5119574312
H         19.6784546297       18.7349436866       28.4778906854
H         20.7005007936       17.7309281697       27.6636154432
    26
VM2 Rank=7      G=48.894            E=16.431            -TS=32.463              
C         21.1081438215       19.2585604692       19.5798547433
H         21.3980179488       18.9512943435       18.5666919444
H         21.0763347878       20.3556189465       19.6016792551
H         21.8972675962       18.9232963741       20.2641961447
C         19.7358741314       18.6551176321       19.9560304413
H         19.8020184598       17.5581300265       19.9562225049
H         19.0075438418       18.9189391097       19.1764571205
C         19.2007947229       19.1475518884       21.3223804195
H         19.1165274407       20.2430018682       21.3099900208
H         18.1812509952       18.7606896150       21.4572783546
C         20.0722699138       18.7044284095       22.5220178068
H         21.0754104582       19.1425223056       22.4370876738
H         20.1972636652       17.6130185822       22.5010708567
C         19.4480343887       19.1268846066       23.8713133173
H         19.3195927818       20.2181701807       23.8908437197
H         18.4454304907       18.6870983819       23.9667989674
C         20.3176482777       18.6893461989       25.0705155865
H         21.3190272836       19.1315644098       24.9822868747
H         20.4444715814       17.5985507961       25.0569809709
C         19.6868414067       19.1144546778       26.4081962205
H         19.5737353480       20.2016866042       26.4328775772
H         18.6959703534       18.6631100621       26.5078899305
N         20.5113933373       18.7026561173       27.6106914648
H         21.4488848347       19.1173762288       27.5915017591
H         20.6321536979       17.6857416107       27.6612415101
H         20.0735553082       18.9953191721       28.4910932964
    26
VM2 Rank=8      G=48.924            E=16.474            -TS=32.451              
C         20.1861019685       19.7828129308       19.1892283137
H         20.2153314818       18.9014739642       18.5353048122
H         19.1864223089       20.2304980075       19.1153222387
H         20.9111295701       20.5116951549       18.8043850455
C         20.5170349638       19.4032110912       20.6482268945
H         20.5183313483       20.3141423501       21.2612912080
H         21.5326452816       18.9859517652       20.6944656633
C         19.5050751067       18.3790759411       21.2142608345
H         18.4972335899       18.8166882316       21.2168433250
H         19.4621416461       17.5112232355       20.5416989263
C         19.8579095540       17.8795895379       22.6369111660
H         20.8596740285       17.4281932352       22.6299999927
H         19.1592381287       17.0751804303       22.9055647746
C         19.7905959232       18.9867726316       23.7163111492
H         20.5374213978       19.7634012482       23.5050820566
H         18.8056355126       19.4729269195       23.6834693826
C         20.0384366837       18.4224504321       25.1326413217
H         21.0226787870       17.9366585976       25.1699342580
H         19.2896821685       17.6521286781       25.3607929423
C         19.9735852896       19.5297923988       26.1992587956
H         20.7286961288       20.2912123612       25.9859133451
H         18.9893548977       20.0054606153       26.1767295360
N         20.2122605106       19.0152950364       27.6041615248
H         20.1647496417       19.7686037991       28.2989430456
H         21.1351795844       18.5790426510       27.6998250116
H         19.5167784873       18.3132267840       27.8773944356
