    26
VM2 Rank=1      G=75.467            E=43.304            -TS=32.163              
N         19.9837497493       18.6238273026       26.4860908588
H         20.8628997579       18.0855470325       26.5332505365
H         19.2304518721       17.9186306533       26.4752978313
C         19.9442666405       19.4506941456       25.2166129197
H         20.7597983220       20.1767600912       25.2639259764
H         18.9975945893       19.9966644423       25.2014388033
C         20.0759375708       18.6065553047       23.9359294014
H         21.0205671803       18.0470767832       23.9630164599
H         19.2642674495       17.8676189730       23.9007514468
C         20.0305610598       19.4900306884       22.6694924140
H         20.8407625338       20.2314339674       22.7110491183
H         19.0865252366       20.0523532613       22.6489756928
C         20.1617617533       18.6528322248       21.3767170691
H         21.1056972400       18.0905984431       21.3969844156
H         19.3516666134       17.9115280217       21.3349438441
C         20.1163094255       19.5367236629       20.1102726567
H         20.9264424473       20.2786131212       20.1460577820
H         19.1725923087       20.0994889995       20.0839931523
C         20.2476393860       18.6973634113       18.8214286607
H         20.2132247734       19.3421171988       17.9336575905
H         19.4308457351       17.9683900487       18.7398931252
H         21.1984346051       18.1488824751       18.8024563343
C         19.8477744148       19.5319732598       27.7004560196
H         18.8962779239       20.0654299837       27.6452702993
H         19.8777684549       18.9240958571       28.6075040508
H         20.6732275447       20.2471891801       27.7083191596
    26
VM2 Rank=2      G=75.757            E=43.424            -TS=32.333              
N         20.3923438657       19.0035671312       26.6222254568
H         20.8629677113       19.5628040894       27.3514493050
H         20.8763299347       18.0924385244       26.6320862847
C         20.5687790206       19.6776912365       25.2718077934
H         21.6301046450       19.9157732821       25.1642151852
H         20.0107043906       20.6171871078       25.2890814378
C         20.1223839055       18.8244860550       24.0670630671
H         20.6516838152       17.8626103721       24.0860648319
H         19.0500143524       18.6036921404       24.1454729310
C         20.4031716916       19.5463043666       22.7304592252
H         21.4765499094       19.7690917465       22.6529425742
H         19.8769716495       20.5110660573       22.7181020276
C         19.9615495283       18.7008986780       21.5140520108
H         20.4874441521       17.7361165728       21.5264795258
H         18.8882262077       18.4783056131       21.5912089793
C         20.2425754533       19.4230880291       20.1773977556
H         21.3156491496       19.6457681256       20.0942052610
H         19.7166441032       20.3879996858       20.1590363327
C         19.8002251731       18.5760019843       18.9651043536
H         18.7233729950       18.3657049545       19.0020601260
H         20.3348738985       17.6175912512       18.9367918419
H         20.0078153272       19.1051040329       18.0259639841
C         18.9169713620       18.8379625193       26.9688903375
H         18.4362119720       19.8186342697       26.9690398919
H         18.4414585119       18.1918933099       26.2282604453
H         18.8314887074       18.3853855832       27.9593255090
    26
VM2 Rank=3      G=75.762            E=43.429            -TS=32.333              
N         19.4983478522       18.9124442770       26.5905909553
H         19.2085031778       17.9224035315       26.5731614429
H         18.8748442971       19.3601591835       27.2810932573
C         19.2844730340       19.5466719846       25.2263255475
H         19.6389907933       20.5792734000       25.2758342119
H         18.2071189252       19.5665605898       25.0430625957
C         19.9769343656       18.8095916178       24.0619162908
H         21.0636227348       18.8089867255       24.2167757719
H         19.6524329028       17.7606404536       24.0506973340
C         19.6506663725       19.4694793331       22.7038044900
H         19.9709679819       20.5206205652       22.7214630691
H         18.5625392763       19.4716983857       22.5496664079
C         20.3379083490       18.7392889981       21.5274109932
H         21.4259688354       18.7372944334       21.6811827119
H         20.0179440906       17.6881763580       21.5098524436
C         20.0113209677       19.3994653443       20.1692217101
H         20.3316271249       20.4507800279       20.1808957306
H         18.9239167996       19.4015552754       20.0093993857
C         20.6994534511       18.6678257952       18.9970198219
H         21.7912910655       18.6789953137       19.1108963040
H         20.4556911161       19.1508380373       18.0418727321
H         20.3726261341       17.6214411208       18.9381541283
C         20.9488956077       19.0452326500       27.0407101913
H         21.2208908029       20.1026603983       27.0673575951
H         21.0543979414       18.6122485541       28.0379503733
H         21.5954723041       18.5134895517       26.3398248200
    26
VM2 Rank=4      G=75.941            E=43.686            -TS=32.255              
N         19.3272315105       19.1677578443       25.9039579175
H         18.7832901325       18.2909211232       25.9025709643
H         18.8262951523       19.8047989446       25.2664593214
C         20.7304290585       18.9120165619       25.3886175180
H         21.2215689319       18.2353349974       26.0925436966
H         21.2707106140       19.8620175467       25.3952494297
C         20.7759514903       18.2992420297       23.9749228049
H         21.8201522770       18.0582791500       23.7350810206
H         20.2263585994       17.3485128345       23.9694004641
C         20.2076137951       19.2479953264       22.8928118712
H         20.7440000949       20.2065438919       22.9285608070
H         19.1519130190       19.4655723908       23.1028547453
C         20.3293882755       18.6416571420       21.4762122000
H         21.3845832485       18.4266460227       21.2574608400
H         19.7958700564       17.6816542900       21.4402464767
C         19.7620170435       19.5867762024       20.3935699060
H         20.2939741954       20.5480678138       20.4241747904
H         18.7054371870       19.8026785243       20.6056956026
C         19.8860733882       18.9780679058       18.9804336905
H         19.3349434072       18.0313515845       18.9084213448
H         20.9358113036       18.7827052627       18.7253112713
H         19.4782132713       19.6632261254       18.2259581102
C         19.3892954383       19.7564869875       27.3064740918
H         18.3732504085       19.9359263402       27.6650526744
H         19.8953388461       19.0515085715       27.9696984427
H         19.9416889255       20.6982451785       27.2765407130
    26
VM2 Rank=5      G=75.944            E=43.689            -TS=32.255              
N         20.5558792898       19.2936379086       25.9474673263
H         20.9607931357       20.0234372228       25.3419922000
H         21.2648822740       18.5451882549       25.9905514285
C         19.2731777254       18.7626359562       25.3370102500
H         18.5525490003       19.5834257858       25.2989741815
H         18.8812390851       17.9954725340       26.0096700729
C         19.4517933113       18.1635010591       23.9280266444
H         20.1814740291       17.3437749622       23.9678209316
H         18.4974095102       17.7178773566       23.6173606704
C         19.8906848282       19.2154175293       22.8816292821
H         20.8632207169       19.6405219137       23.1634498384
H         19.1703223011       20.0453612422       22.8730028692
C         19.9934328359       18.6072638301       21.4643003322
H         20.7112360094       17.7752593810       21.4725329255
H         19.0214528549       18.1849199946       21.1737825957
C         20.4322739333       19.6554118869       20.4173617966
H         21.4059003579       20.0789410822       20.7013490710
H         19.7161209553       20.4890430256       20.4039024049
C         20.5329874089       19.0444700276       19.0033330585
H         21.2678113942       18.2292851350       18.9767158442
H         20.8456261751       19.8034020654       18.2744274822
H         19.5648965296       18.6427593870       18.6767879307
C         20.2777706672       19.8476618021       27.3378713100
H         19.8798317320       19.0501244230       27.9691544422
H         21.2087415018       20.2266613134       27.7653959522
H         19.5495490582       20.6581880740       27.2624728882
    26
VM2 Rank=6      G=76.027            E=43.767            -TS=32.260              
N         19.9281115669       18.8063817488       26.2895796952
H         20.7993605125       19.0417418945       26.7899520875
H         19.8669571100       17.7766013558       26.3145377219
C         20.0011519030       19.2914085943       24.8557536677
H         20.0755368033       20.3816215714       24.8738717230
H         19.0647157186       19.0177222376       24.3639847312
C         21.1920067508       18.7037487382       24.0742028995
H         22.1234140596       18.9483156535       24.6020229946
H         21.1183470927       17.6081805803       24.0576138951
C         21.2798652767       19.2408181432       22.6260729684
H         22.1973346464       18.8532620565       22.1618113952
H         21.3809380199       20.3349118252       22.6466413495
C         20.0626878226       18.8449473170       21.7556383071
H         19.9446854736       17.7525003080       21.7643168897
H         19.1428822895       19.2677015844       22.1814514130
C         20.2162809074       19.3333725392       20.2978913205
H         21.1299041906       18.9091998024       19.8581672551
H         20.3355733508       20.4258726210       20.2832415757
C         19.0011130990       18.9394985617       19.4311878268
H         19.1289091426       19.2943515384       18.4002780941
H         18.0754750615       19.3783627405       19.8258869490
H         18.8758462823       17.8493326049       19.3988261458
C         18.7267826736       19.4298243575       26.9866733148
H         18.8301790794       20.5171032781       26.9768395709
H         17.8151951107       19.1398511902       26.4595303055
H         18.6859408760       19.0725185817       28.0180851054
    26
VM2 Rank=7      G=76.059            E=43.799            -TS=32.260              
N         20.0150364432       18.8152673938       26.2926507838
H         20.2812891035       17.8189841443       26.3292612080
H         19.0813125859       18.8659911775       26.7290320337
C         19.9460711555       19.2857003081       24.8537719387
H         20.9505945292       19.2104699667       24.4307745504
H         19.6517542218       20.3382109164       24.8587709607
C         18.9563205320       18.4750190645       23.9950051149
H         19.2509397787       17.4171158323       23.9914529997
H         17.9600823117       18.5224374591       24.4545572806
C         18.8632973013       18.9936039189       22.5404776299
H         18.5418433501       20.0444682512       22.5460958840
H         18.0779902474       18.4318426444       22.0158795373
C         20.1932951894       18.8583605894       21.7602844291
H         20.9764460333       19.4553845856       22.2464098677
H         20.5289383830       17.8123339321       21.7850522697
C         20.0465337951       19.3160318843       20.2918953748
H         19.7101139641       20.3619177979       20.2610874180
H         19.2706246760       18.7190249566       19.7923620120
C         21.3738663775       19.1822016441       19.5152246351
H         21.2494505421       19.5112740806       18.4753882631
H         21.7189037574       18.1401346799       19.4995059542
H         22.1617098921       19.7963030861       19.9706096516
C         21.0135792060       19.6638151970       27.0676900937
H         20.6933975052       20.7077623743       27.0427396854
H         21.0534104826       19.3148560410       28.1019945103
H         21.9996416139       19.5679239922       26.6078637715
    26
VM2 Rank=8      G=76.060            E=43.581            -TS=32.479              
N         19.5901791941       19.7660952501       26.0203772386
H         18.9702410389       19.9964805472       26.8131508104
H         19.4494745776       20.5281296513       25.3404977418
C         19.1664165231       18.4380107694       25.4124087082
H         18.0902877430       18.4919067438       25.2289327988
H         19.3407949144       17.6612438289       26.1612265743
C         19.8808343948       18.0565853703       24.0972897981
H         20.9573145297       17.9411449352       24.2782157175
H         19.5141898811       17.0717142975       23.7790126942
C         19.6409835254       19.0831201984       22.9648818927
H         20.0430696521       20.0619914871       23.2585891810
H         18.5606664830       19.2138478810       22.8116712192
C         20.3005599422       18.6402820544       21.6390153257
H         21.3803533851       18.5063000454       21.7926967677
H         19.8992723408       17.6629582920       21.3368606702
C         20.0649528455       19.6653200554       20.5072090241
H         20.4674162910       20.6443122058       20.8031332820
H         18.9859587386       19.8014111680       20.3483384663
C         20.7247049450       19.2194597262       19.1847890978
H         20.5465567821       19.9594971001       18.3938215429
H         20.3173828798       18.2584470565       18.8445762105
H         21.8104116043       19.1078650799       19.3030552127
C         21.0393686299       19.7211265758       26.4910289150
H         21.6916755178       19.5398879832       25.6343937486
H         21.2953710702       20.6778690292       26.9516286500
H         21.1544014625       18.9175678699       27.2216795989
