    13
VM2 Rank=1      G=16.554            E=6.694             -TS=9.860               
C         19.7183880710       18.9886977780       20.9308458759
H         18.7845003309       19.2996023871       20.4442472779
H         20.4604115455       18.7657164342       20.1549474095
C         19.5459588702       17.9070188520       22.0477919256
H         20.4631790929       17.3616272919       22.3028379457
H         18.7360009463       17.1846118667       21.8985638731
C         19.2225964551       19.1061531062       22.9894438563
H         18.1790586618       19.4457217078       22.9366863439
C         20.1960053619       19.9253054127       22.0892723846
H         21.2554003938       19.8236414508       22.3556018523
H         19.9609453238       20.9895102771       21.9789286479
O         19.6300512418       18.9478248510       24.3286459577
H         19.0296041133       18.2889505057       24.7391959334
    13
VM2 Rank=2      G=16.565            E=6.705             -TS=9.860               
C         19.7183407376       18.9885917731       20.9308445551
H         20.4602617246       18.7653486992       20.1549239536
H         18.7843415452       19.2991802348       20.4442587059
C         19.5460155787       17.9071465475       22.0480224114
H         20.4624955356       17.3617361484       22.3052736475
H         18.7355920853       17.1849208583       21.9011720733
C         19.2226554064       19.1063156478       22.9894463675
H         18.1777206331       19.4415434089       22.9365944318
C         20.1960510260       19.9254456058       22.0890440991
H         21.2560670112       19.8233996575       22.3531404587
H         19.9615120621       20.9896168644       21.9763374905
O         19.6299372513       18.9475004258       24.3286425669
H         19.5215382417       19.8171082924       24.7704953245
    13
VM2 Rank=3      G=16.881            E=7.062             -TS=9.819               
C         19.7178316221       18.9888069224       20.9312601794
H         18.7835189437       19.2996571607       20.4453585775
H         20.4589788580       18.7659778264       20.1544273096
C         19.5457490055       17.9064234794       22.0475899055
H         20.4618498633       17.3570477228       22.2972553493
H         18.7333152007       17.1864031096       21.8999003806
C         19.2241855948       19.1057302541       22.9896182189
H         18.1800227006       19.4430741094       22.9384850083
C         20.1962236576       19.9260628405       22.0888656490
H         21.2577174255       19.8281132335       22.3477555009
H         19.9582541427       20.9896825861       21.9776259120
O         19.6290101200       18.9479765036       24.3286660472
H         20.5619175070       18.6478114878       24.3112106769
    13
VM2 Rank=4      G=17.420            E=7.528             -TS=9.892               
C         20.3520960503       18.7766706269       21.3180044231
H         21.3189122980       18.4570078022       21.7271226110
H         20.4220606027       18.7764976127       20.2237102648
C         19.1069767891       18.0469491202       21.9240764059
H         18.2126106638       18.0736917611       21.2897185429
H         19.2664146017       17.0154565305       22.2577103677
C         19.1275652905       19.1357568638       23.0412451121
H         18.1379918233       19.4470802684       23.3994465810
C         19.7592238222       20.0726038674       21.9654580690
H         20.4863782041       20.8042537957       22.3351119793
H         19.0247857303       20.5960342472       21.3412483232
O         19.9671380478       18.8430195217       24.1372159900
H         20.8296761278       18.5728248459       23.7599401773
    13
VM2 Rank=5      G=17.627            E=7.736             -TS=9.891               
C         20.3542217306       18.7758665782       21.3214970672
H         20.4355353958       18.7713920762       20.2281787302
H         21.3151661514       18.4575680207       21.7463247963
C         19.1056862917       18.0482039846       21.9220285013
H         18.2128881947       18.0764078574       21.2857253861
H         19.2646562958       17.0173350070       22.2573357694
C         19.1282019675       19.1360995747       23.0406906027
H         18.1373239701       19.4458045579       23.3971396653
C         19.7574116503       20.0727375749       21.9623122494
H         20.4844706667       20.8058805691       22.3286977248
H         19.0226770116       20.5921601570       21.3351447007
O         19.9674783599       18.8420922876       24.1394715793
H         20.0358151344       19.6580630453       24.6795426734
    13
VM2 Rank=6      G=17.628            E=7.736             -TS=9.892               
C         20.3542543711       18.7759521873       21.3215050205
H         21.3153132324       18.4580224411       21.7463511404
H         20.4359469964       18.7726095334       20.2282111393
C         19.1054617358       18.0480169714       21.9209462955
H         19.2639756194       17.0154875422       22.2512605518
H         18.2132279658       18.0783084571       21.2837842009
C         19.1278875696       19.1351249621       23.0406704896
H         18.1382178214       19.4485741197       23.3972002859
C         19.7574643832       20.0724132043       21.9633800462
H         19.0234703250       20.5938104025       21.3371500158
H         20.4838519606       20.8037722705       22.3346851089
O         19.9679319403       18.8434926749       24.1394981483
H         19.5410352377       18.1215742975       24.6481720286
