   148
VM2 Rank=1      G=497.028           E=304.940           -TS=192.088             
C         16.3395750659       15.1620685515       21.0179911342
H         15.2847555967       14.9669129352       20.7880219919
O         16.5623852612       16.5425368757       21.3701476490
C         16.7965683549       14.2699349781       22.2016634225
H         16.6212346859       13.2268716028       21.9078078177
O         16.0488121390       14.5531161059       23.3924264237
H         16.5153014192       14.0558821416       24.1015366452
C         18.3094327421       14.4337494152       22.4800417282
H         18.4829087448       15.4479698930       22.8657200451
O         18.7221890939       13.4593357133       23.4466210277
H         19.7024993190       13.5513123010       23.5468963953
C         19.1331726528       14.2610607584       21.1815134869
H         19.1034797155       13.2057208110       20.8795673881
C         18.5782299508       15.1286903077       20.0228343630
H         18.7400776686       16.1889213647       20.2568253554
O         17.1646793720       14.8447549348       19.8763152304
C         19.2559930167       14.8077833793       18.6737115901
H         19.1401623389       13.7380353461       18.4549009485
H         20.3296598687       15.0198463271       18.7477225526
O         18.6778317186       15.5942316915       17.6307302040
H         17.7080974825       15.4526861261       17.6942205071
C         14.7037944633       20.2762680321       21.2812624291
H         13.9834442585       21.0959530651       21.1652640825
O         16.0302912444       20.7648803587       21.5512555669
C         14.2866600314       19.3475465530       22.4507612497
H         13.2867513906       18.9585436534       22.2185689048
O         14.2386952037       20.0611335959       23.6945236583
H         14.1133585100       19.3623004153       24.3754342842
C         15.2487056698       18.1418954124       22.5778852176
H         16.2290493048       18.5137964252       22.9069902817
O         14.7256578918       17.2180530439       23.5403599155
H         15.2937158518       16.4087096381       23.4959002433
C         15.4323170429       17.4247322635       21.2184465094
H         14.5088497063       16.8768103535       20.9896621601
C         15.7370619431       18.4184234974       20.0641769506
H         16.7409745956       18.8357981543       20.2110841109
O         14.7549031370       19.4833341572       20.0756970838
C         15.6992768628       17.7672927840       18.6647274223
H         16.4894407626       17.0097024382       18.6027618556
H         15.9248935907       18.5347524731       17.9124141958
O         14.4230400304       17.1754960602       18.4038855160
H         13.7605945040       17.8915093050       18.5243213606
C         18.4104944380       24.1161339276       21.5394999563
H         18.8481110038       25.1224517136       21.5399591049
O         19.4134272504       23.0963485418       21.3522053678
C         17.6708643050       23.8611866327       22.8758965428
H         16.8577214769       24.5953334805       22.9462763011
O         18.5467213383       24.0210683536       23.9998635233
H         18.0433859997       23.6509315747       24.7596992500
C         17.0398963447       22.4517072956       22.8910897382
H         17.8548180777       21.7181383114       22.9115774555
O         16.2199078616       22.3021242410       24.0565571438
H         15.6986847287       21.4710614997       23.9294929401
C         16.1862426522       22.1933667192       21.6254042710
H         15.2243696847       22.7090725210       21.7461890053
C         16.8754796040       22.6588882169       20.3110105536
H         17.6742818573       21.9452455697       20.0703560271
O         17.4394138466       23.9841681467       20.4804907288
C         15.9163348084       22.7135577702       19.1013399068
H         15.5463960824       21.7024973871       18.8879508257
H         16.4801182330       23.0471804601       18.2198670950
O         14.8203330698       23.5981941191       19.3524738757
H         15.2177132280       24.4702133919       19.5721867627
C         23.4659727794       22.5668394559       20.6372007985
H         24.5124222245       22.6609745370       20.3201335200
O         23.1711314621       21.2274664292       21.0808794992
C         23.1361268122       23.5800364508       21.7682222130
H         23.3045499452       24.5845847776       21.3597757739
O         24.0045118986       23.3902905346       22.8965886437
H         23.7659322396       22.5170729770       23.2969258074
C         21.6416828010       23.4822705191       22.1775579864
H         21.4852336761       22.5098474432       22.6648704320
O         21.2989902248       24.5413528942       23.0802704267
H         20.3987647566       24.3309662978       23.4315332776
C         20.7126671880       23.5583331394       20.9369578881
H         20.6802555244       24.5930401793       20.5706385747
C         21.1789336342       22.6395016388       19.7778226324
H         20.9975830466       21.5966785417       20.0651843109
O         22.5906475634       22.8507392904       19.5268130085
C         20.4253192955       22.9014108304       18.4552524789
H         19.3512998836       22.7431964240       18.6153264647
H         20.7585348721       22.1666817506       17.7100181395
O         20.6622493814       24.2309069646       17.9829175599
H         21.6392317636       24.3346829734       17.9474278457
C         24.9841540647       17.6830383923       22.2094746818
H         25.6615269123       16.8885418457       22.5473855538
O         23.7610566558       17.1454395375       21.6639826971
C         24.6374340399       18.6327128370       23.3853319808
H         25.5725660322       19.1037561725       23.7146470874
O         24.0854921237       17.8838188573       24.4792462152
H         23.4055339278       18.4532200086       24.9243460345
C         23.6860017096       19.7609735285       22.9085387010
H         22.7261388376       19.3093768016       22.6298898616
O         23.4875535875       20.7206542890       23.9556518190
H         22.8463471627       20.3094174007       24.5935631409
C         24.2573365565       20.4778240412       21.6576733787
H         25.0815654753       21.1300961470       21.9749620433
C         24.7609636809       19.4838401359       20.5727118345
H         23.8860044963       19.0039337534       20.1138964133
O         25.6098801454       18.4780787408       21.1803488623
C         25.5675879052       20.1552536731       19.4389194074
H         24.9056252492       20.8286300053       18.8785610029
H         25.9071145880       19.3784224289       18.7407457277
O         26.6867607246       20.8801409922       19.9570673437
H         27.2223934072       20.2319633601       20.4663498404
C         21.5170108752       13.7192711399       21.3223226809
H         21.1132323511       12.7102224434       21.1728869175
O         20.4707824519       14.7013751027       21.4794237118
C         22.4155585236       13.7435164834       22.5811180189
H         23.2460573417       13.0472400768       22.4058857311
O         21.6869799525       13.3278595558       23.7445397662
H         22.2896352227       13.5227104783       24.4970976582
C         23.0129858859       15.1501173362       22.8087514870
H         22.1895604315       15.8198054077       23.0892812100
O         23.9660025043       15.0807877625       23.8753696379
H         24.0936967288       16.0109266091       24.1877598871
C         23.6785573673       15.7141164448       21.5223101656
H         24.6703380064       15.2622263062       21.3887444100
C         22.8352385770       15.4673023115       20.2402949701
H         21.9892353403       16.1652602972       20.2463772100
O         22.3388394396       14.1060054721       20.2032254126
C         23.6341909480       15.7130556471       18.9414277073
H         24.0043168793       16.7470651545       18.9385362093
H         22.9567719660       15.6028308289       18.0840939326
O         24.7270108328       14.7966071372       18.8299769976
H         24.3395498829       13.8985071194       18.9297121957
C         20.7514282450       18.4753397852       25.3023313998
O         20.0762568222       18.0484312965       26.2177229764
O         21.7795352427       19.1098370716       25.4554925754
C         20.2779146242       18.2185162426       23.8749640649
H         19.5099963977       17.4365760107       23.9003874075
H         21.1256809076       17.8215288043       23.3091455865
C         19.7165074309       19.4935186899       23.1970421385
H         18.8964364450       19.8813794162       23.8157095136
H         20.4881882701       20.2750064327       23.1810638161
C         19.1925379558       19.2556110695       21.7629727151
H         18.7345382798       20.1860260809       21.4064302954
H         18.3994234185       18.4990086723       21.7843846869
C         20.2901486333       18.8252657152       20.7666921809
H         21.1672797981       19.4711039112       20.8882230203
H         20.6145573468       17.8026066991       20.9940663349
C         19.7977339480       18.9064380422       19.3063937833
H         19.4278038000       19.9186299359       19.0964286274
H         18.9518485878       18.2229391565       19.1570390877
C         20.9201692427       18.5617114137       18.3089282210
H         21.7812496248       19.2303008997       18.4382489319
H         20.5612865212       18.6618195277       17.2766601497
H         21.2581530867       17.5282303242       18.4462819075
