   146
VM2 Rank=1      G=547.806           E=354.413           -TS=193.393             
C         16.1678305821       14.9883814907       20.6239436890
H         15.1071328267       14.8765200970       20.3642609471
O         16.5084504412       16.3638250190       20.9010496172
C         16.5515920920       14.1001566083       21.8347560609
H         16.4226228085       13.0561306672       21.5205171599
O         15.7128932184       14.3441543780       22.9730768703
H         15.8671818651       15.2821299983       23.2513315356
C         18.0415098852       14.3060532480       22.1991267072
H         18.1582880572       15.3311048929       22.5785235286
O         18.4013717113       13.3683182137       23.2197380255
H         17.6250634297       13.3400282970       23.8245123984
C         18.9670689125       14.1420974098       20.9588646590
H         19.1239377606       13.0745925070       20.7539415851
C         18.4112620321       14.8169435696       19.6742388999
H         18.5785597962       15.8973942384       19.7476125002
O         16.9952737209       14.5460820738       19.5292181949
C         19.1223504564       14.3109971791       18.4023936678
H         18.9113977220       13.2414706943       18.2691793668
H         20.2077466112       14.4251166398       18.5260542894
O         18.6797286153       15.0558574520       17.2659037584
H         17.6987958381       14.9925502214       17.2643238041
C         15.0284533334       20.0948028949       21.8070147087
H         14.4255307987       20.9682856270       22.0851407656
O         16.3002395273       20.4815720634       21.2447335284
C         15.2806934620       19.2004517792       23.0471469588
H         14.2990694743       18.8814360750       23.4211182412
O         15.9710430604       19.9191022298       24.0825295355
H         15.8390652573       20.8814289670       23.9039797582
C         16.0852858265       17.9387788566       22.6607365021
H         17.0966928180       18.2590838757       22.3884308946
O         16.1534575159       17.0681456856       23.7928167118
H         16.3901489115       17.6583709581       24.5436445122
C         15.4704127531       17.2018574604       21.4424250753
H         14.6026158155       16.6196975798       21.7800803367
C         15.0529228562       18.1686450144       20.2985253210
H         15.9643084274       18.5245746208       19.8009026651
O         14.3228785767       19.2995760052       20.8318769707
C         14.1691990942       17.4980658140       19.2233548701
H         14.7486429850       16.7097077195       18.7247501683
H         13.9114824637       18.2454160725       18.4609839585
O         12.9817672555       16.9467390462       19.7997465185
H         12.5220124506       17.6906823395       20.2489878288
C         18.5353665602       23.9821337043       20.8493098657
H         18.8960461279       24.9882027864       20.5985984139
O         19.6010875570       23.1318075399       21.3106713956
C         17.4465879589       24.0360577742       21.9508807981
H         16.6148743982       24.6336031601       21.5554366443
O         17.9390766234       24.6577423465       23.1486416173
H         18.7670302475       24.1821985388       23.4134801635
C         16.9080392167       22.6170439411       22.2608919692
H         17.7200927542       22.0366117564       22.7206057169
O         15.8177277105       22.7363589648       23.1815184759
H         16.0988205439       23.4348758587       23.8159626707
C         16.4684215632       21.8848651970       20.9594203291
H         15.5372447904       22.3267765469       20.5803029293
C         17.5499547693       21.9781226217       19.8505747641
H         18.4096061226       21.3646138226       20.1459844449
O         17.9486036962       23.3611532531       19.6864510693
C         17.0421416752       21.4717082367       18.4835467159
H         16.2162136059       22.1110430740       18.1442208002
H         16.6496026952       20.4530709967       18.5977602736
O         18.1083753130       21.4798838776       17.5296652302
H         18.4630624672       22.3969953738       17.5349933293
C         23.5934597141       22.8889836907       22.0660110837
H         24.6648584881       22.9937174121       22.2806435567
O         23.2556391934       21.5508431450       21.6454424766
C         22.7579029251       23.2415805941       23.3208834877
H         22.9387412476       24.2995529816       23.5515270358
O         23.1446207185       22.4393771931       24.4478036617
H         23.7271748822       21.7163594502       24.1065149669
C         21.2510860362       23.0640793120       23.0310044599
H         21.0668476702       21.9911444329       22.9122939228
O         20.4885250787       23.5519713134       24.1385613935
H         20.9366405731       23.1838322724       24.9329864311
C         20.8127855223       23.7852020342       21.7293248116
H         20.6504211238       24.8469032795       21.9587567602
C         21.8241796476       23.6381295132       20.5539960922
H         21.6999333196       22.6351380036       20.1248691342
O         23.1879619474       23.7965847996       21.0214003216
C         21.5956091072       24.6545582941       19.4133778005
H         20.6154846312       24.4664293588       18.9557636567
H         22.3541202509       24.4898129218       18.6363669567
O         21.6646662525       25.9987979550       19.8971524439
H         22.5512656073       26.0985228357       20.3102397160
C         24.8865136905       17.8180650327       20.8881473246
H         25.5253017900       16.9739235821       20.5982049069
O         23.5244571015       17.3932703304       21.1057995822
C         25.4428494008       18.5282251012       22.1551415265
H         26.4456892090       18.8948120830       21.9000282537
O         25.5493477662       17.6392466738       23.2769932980
H         24.6269783155       17.3671945428       23.5146509535
C         24.5730411323       19.7516160451       22.5282389612
H         23.5911965571       19.3814520031       22.8542349110
O         25.1967332568       20.4713875657       23.5960430025
H         25.5178863015       19.7803680430       24.2184595322
C         24.3568719595       20.6874918469       21.3117911244
H         25.2759761641       21.2525064789       21.1061730969
C         23.9503481715       19.9110930073       20.0325928848
H         22.9237825064       19.5488008659       20.1551413433
O         24.8597944866       18.8004779512       19.8311624556
C         23.9960409808       20.7898503725       18.7662474474
H         25.0396042920       21.0423844225       18.5352447602
H         23.4603208378       21.7288428552       18.9537287909
O         23.3890372455       20.0954090463       17.6742520230
H         23.8633600928       19.2383128680       17.5966962574
C         21.2088968450       14.0543191009       21.9497650760
H         20.8293967936       13.0696523595       22.2516131261
O         20.2111564190       14.8135406926       21.2386994225
C         21.6757674469       14.8594206441       23.1920639237
H         22.4731501543       14.2778043122       23.6728085125
O         20.6093289941       15.0640165317       24.1327782949
H         19.9064839464       14.4012362525       23.9281744263
C         22.2609675689       16.2256552125       22.7721273376
H         21.4375713035       16.8268616309       22.3691658812
O         22.8166975287       16.8707000382       23.9223502571
H         22.1327379807       16.7585770020       24.6204314257
C         23.3347365746       16.0786692336       21.6666913072
H         24.2547286325       15.6865889733       22.1194520061
C         22.8762707091       15.1364619323       20.5182940503
H         22.0954894553       15.6492471062       19.9407586770
O         22.3467228552       13.9054244997       21.0732905003
C         24.0092974065       14.7618919313       19.5369515538
H         24.3396727567       15.6667609375       19.0100032402
H         23.6084736711       14.0733389481       18.7810354003
O         25.1116187448       14.1601784171       20.2218315322
H         24.7515112842       13.3717337122       20.6857103903
N         19.2949284623       18.8613970470       16.8791694167
H         18.9443855258       19.8341408063       16.8939358513
H         20.2678660553       18.8897564004       16.5595893595
H         18.7516535471       18.3545125923       16.1737188435
C         19.1644946831       18.2327498093       18.2485973762
H         19.4278140937       17.1745932085       18.1722094051
H         18.1144801395       18.3082175495       18.5434216464
C         20.0507066491       18.9170049302       19.3019433565
H         21.0868309704       18.5730963345       19.1865250607
H         20.0533662341       20.0009493904       19.1253152398
C         19.5450012494       18.6378878656       20.7327576216
H         19.5967000886       17.5633139144       20.9522652683
H         18.4885326152       18.9266306903       20.7960826229
C         20.3508249320       19.4250647669       21.7861620157
H         21.3949406834       19.0878936200       21.7854651324
H         20.3626804857       20.4870239243       21.5118964902
C         19.7635176527       19.2666497287       23.2042744027
H         18.7558674639       19.6979390491       23.2646108143
H         19.7019403261       18.2092228062       23.4942154412
H         20.3916776563       19.7815666028       23.9426498221
