   152
VM2 Rank=1      G=542.018           E=338.181           -TS=203.837             
C         16.2113008050       15.2859265826       21.8937731982
H         15.1521163821       15.1452389470       22.1452052990
O         16.4472424286       16.5509934414       21.2477227092
C         17.0885439736       15.2149537479       23.1692120968
H         16.9682865728       14.2102476423       23.5949200502
O         16.6860111604       16.1937617373       24.1415608825
H         15.8442400937       16.5982892234       23.8193078361
C         18.5776988443       15.4148150950       22.8077392914
H         18.6945312957       16.4500833903       22.4642267922
O         19.3833732564       15.1963390092       23.9704785186
H         18.9304967750       15.7012232136       24.6826312738
C         19.0302282884       14.4734021432       21.6631885162
H         19.1805575512       13.4674683801       22.0764890876
C         18.0128439872       14.4126875537       20.4870126542
H         18.0829494181       15.3534989445       19.9250120631
O         16.6653744719       14.2488167440       20.9988387969
C         18.2797231865       13.2621479562       19.4909593414
H         19.2356844280       13.4429420390       18.9822381895
H         17.4961377973       13.2730457220       18.7214873982
O         18.3051638253       11.9954581359       20.1549167984
H         17.4333081541       11.8981794214       20.5986176418
C         14.7039920248       20.1610236378       20.4297856929
H         14.0996311504       21.0179557855       20.1071098392
O         16.0462284823       20.5618061293       20.7877515179
C         14.0273307506       19.4088582747       21.6060693190
H         13.0858883504       18.9951635729       21.2214596539
O         13.7264554795       20.2787942742       22.7058358355
H         14.5932220010       20.5815468975       23.0765498448
C         14.9125535577       18.2243021594       22.0610173183
H         15.8409349833       18.6355797909       22.4816332196
O         14.2214953369       17.4713905526       23.0635066769
H         13.7855655773       18.1444408540       23.6340964771
C         15.2896470688       17.3102823876       20.8624160193
H         14.4430206112       16.6599084139       20.6046912883
C         15.7201854216       18.1009649830       19.5980879110
H         16.7366416808       18.4758849909       19.7608057285
O         14.8120500541       19.2047474894       19.3563545536
C         15.7350714342       17.2145872119       18.3359651082
H         14.7123557591       16.8824307679       18.1129271474
H         16.3425698736       16.3204767570       18.5284704998
O         16.2781763821       17.9442138710       17.2343476818
H         15.7516280369       18.7709834340       17.1715970634
C         18.3955602203       23.7512231071       22.0447489949
H         18.7588254286       24.7207180820       22.4088529028
O         19.4739565542       22.9389799998       21.5377026942
C         17.6650239161       22.9905886795       23.1830362037
H         16.8407836732       23.6335278491       23.5183967563
O         18.5340117618       22.7243870131       24.2954324790
H         19.2900215164       23.3563143346       24.2300554529
C         17.0607074744       21.6634879695       22.6730962207
H         17.8905986192       20.9874518069       22.4404963175
O         16.2648537699       21.0979231463       23.7169707666
H         16.8279775136       21.1721904900       24.5206941046
C         16.2221014379       21.8629682557       21.3828735854
H         15.2635297270       22.3314629245       21.6432141077
C         16.9659408498       22.7372483390       20.3364587065
H         17.8052754555       22.1590233602       19.9281418998
O         17.4485536729       23.9464737146       20.9736932980
C         16.0612355140       23.1604076950       19.1612437312
H         15.2326119453       23.7728709656       19.5412983591
H         15.6323382342       22.2655746917       18.6913893883
O         16.8262687295       23.8895552156       18.1999135530
H         17.2804679686       24.6040726018       18.6996967589
C         23.6356465950       22.9163247108       21.6103510754
H         24.7009930887       23.1660959148       21.5292187624
O         23.4287562657       21.5190575872       21.8893266736
C         22.9853211325       23.7179174350       22.7608158944
H         23.1216295454       24.7839783612       22.5368733927
O         23.6232398169       23.4097391760       24.0110501706
H         23.8402385916       22.4441984410       23.9953180884
C         21.4646531405       23.4378766680       22.8482195889
H         21.3303765647       22.4038467390       23.1952269925
O         20.8974693520       24.3474315390       23.7976590047
H         21.5457718479       24.3738047823       24.5382160582
C         20.7677083761       23.5722350115       21.4624606749
H         20.6777369801       24.6328012750       21.1920848491
C         21.5526293361       22.8413710256       20.3402130643
H         21.4624920092       21.7573849761       20.4896925867
O         22.9389403613       23.2509363632       20.3948844781
C         21.0373841362       23.1759992556       18.9248387447
H         21.2553569905       24.2281969456       18.6985293344
H         19.9471483521       23.0497707934       18.8928269662
O         21.6611199391       22.3141463927       17.9662665240
H         22.6302748724       22.3999844716       18.1062194656
C         25.1750666771       17.7822497177       21.6034972345
H         25.8602969453       16.9310102176       21.5037115900
O         23.7968424479       17.3620846067       21.6384932323
C         25.4779050246       18.5516227368       22.9121668248
H         26.5134494205       18.9110634303       22.8530594102
O         25.3406991999       17.6906439239       24.0538478952
H         24.6860675982       16.9878371380       23.8134398026
C         24.5521515904       19.7822166749       23.0466672093
H         23.5275292277       19.4186749432       23.2012479882
O         24.9557952725       20.5692920938       24.1723394965
H         25.0912515927       19.9214118801       24.8994527813
C         24.5718262809       20.6537410091       21.7659168635
H         25.5160396644       21.2133928835       21.7346651843
C         24.4148486122       19.8160073830       20.4652469736
H         23.3793335735       19.4571510302       20.4058102398
O         25.3387292651       18.6993732828       20.5027762757
C         24.7269147783       20.6143077258       19.1799869514
H         25.8145261070       20.7231066827       19.0733668379
H         24.3071232025       21.6203421938       19.2572748708
O         24.1681843709       19.9624360476       18.0370044123
H         24.6045183324       19.0871753472       17.9653883263
C         21.3147372745       14.1107549867       20.8432010639
H         20.9176304034       13.1371093439       20.5289801472
O         20.2531809716       15.0357529046       21.1489837966
C         22.2518080306       13.9565505627       22.0750499323
H         23.0639633168       13.2809687249       21.7766753213
O         21.5698808626       13.3906382030       23.2050057273
H         20.8476307557       14.0216034518       23.4536756605
C         22.8837682246       15.3140250870       22.4639637680
H         22.0838178589       15.9657991314       22.8409348423
O         23.8646584191       15.1121777798       23.4863611518
H         23.4448172891       14.4974590748       24.1288279476
C         23.5359141158       16.0029236489       21.2406026533
H         24.4531488691       15.4641030651       20.9682927313
C         22.5840917847       16.0352619907       20.0179388058
H         21.7578493594       16.7176010364       20.2427917674
O         22.0877011142       14.6959142299       19.7730778819
C         23.2732367206       16.5240652263       18.7273685938
H         23.9480388071       15.7424429667       18.3536200550
H         23.8810649891       17.4047825083       18.9538933341
O         22.2942863893       16.8654087616       17.7437066912
H         21.7692106014       16.0508550293       17.5841835207
C         20.0041546225       19.0949643805       23.5304304746
H         18.9898601123       18.7097903681       23.7006147408
H         20.6589103373       18.6735543257       24.3039423163
H         19.9823586494       20.1848222765       23.6632421956
C         20.5129213295       18.7173556613       22.1239783644
H         20.5702680130       17.6258818239       22.0365078681
H         21.5340039295       19.0984937998       21.9925509166
C         19.6017658723       19.2876666871       21.0175968492
H         18.5691155836       18.9446509395       21.1688385909
H         19.5907587388       20.3802608591       21.1020860207
C         20.0792946867       18.8944770594       19.6038425860
H         19.9199221496       17.8192836604       19.4435909000
H         21.1592110409       19.0772403022       19.5288501565
C         19.3403544790       19.7005661285       18.5101310997
H         18.2620239529       19.5217998834       18.5870365477
H         19.4856895530       20.7716941870       18.6889919168
C         19.8001847985       19.3600192160       17.0773843529
H         19.5801250665       18.3062075126       16.8803478042
C         19.0260320705       20.2172967901       16.0640676227
H         19.3107829659       19.9567753003       15.0376630482
H         17.9456365874       20.0555180461       16.1624864284
H         19.2282548530       21.2855597168       16.2159148079
N         21.2819920326       19.5375994823       16.8913882664
H         21.5897184789       20.4640934223       17.2263547679
H         21.8150743383       18.8222444639       17.4106883331
H         21.5545093244       19.4534766107       15.9100830813
