   146
VM2 Rank=1      G=492.061           E=304.437           -TS=187.624             
C         16.2073713893       15.3070004284       21.7070909392
H         15.1328233560       15.1688041151       21.8814738076
O         16.4962274431       16.6042061204       21.1470662943
C         16.9928934390       15.1403772469       23.0311593846
H         16.8286822469       14.1123928832       23.3796550670
O         16.5369517373       16.0517876217       24.0396618850
H         17.2276425944       16.0085539613       24.7387014676
C         18.5093943416       15.3209895013       22.7966521972
H         18.6960557778       16.3695527468       22.5279040436
O         19.2116683606       14.9864250769       23.9992716540
H         20.1076779983       14.6769167174       23.7243498928
C         19.0180420095       14.4292647899       21.6368034699
H         19.1133389087       13.3990515281       22.0058945494
C         18.0872853341       14.4643591904       20.3889577136
H         18.2157571324       15.4336143302       19.8909126966
O         16.7031332693       14.3079329810       20.7909134299
C         18.3992280904       13.3662165790       19.3479614177
H         19.3958760054       13.5462060584       18.9239509783
H         17.6769622453       13.4464524719       18.5244528181
O         18.3393154206       12.0630486461       19.9349196760
H         17.4352287586       11.9712633782       20.3100265962
C         14.7576311292       20.2524190132       20.3796245722
H         14.1582634589       21.1154387859       20.0623443134
O         16.0765912116       20.6522253988       20.8091419362
C         14.0515194521       19.4643804720       21.5142690790
H         13.1245574200       19.0530663007       21.0946917005
O         13.7134575969       20.3283525269       22.6098561020
H         14.5639193002       20.5772116521       23.0498093273
C         14.9370451938       18.2713432122       21.9643716980
H         15.8459741298       18.6786969670       22.4286473400
O         14.2360620144       17.4593319297       22.9137468327
H         14.9323785835       16.9663447227       23.4132716526
C         15.3630995642       17.3988799276       20.7481688527
H         14.5203856373       16.7665211345       20.4387327401
C         15.8321804379       18.2337429757       19.5233439894
H         16.8353227281       18.6258240784       19.7309241021
O         14.9210002793       19.3345802787       19.2796066390
C         15.9240452572       17.3990627342       18.2271619009
H         16.6219097147       16.5663955390       18.3863793254
H         16.3411732895       18.0303510962       17.4312349079
O         14.6388137201       16.9006060002       17.8437342053
H         14.0456850016       17.6837134112       17.8032271667
C         18.4019604425       23.8143035419       22.0246263028
H         18.8236102817       24.7659335541       22.3716755705
O         19.4248280299       22.9352147748       21.5081576310
C         17.6756786372       23.0969869667       23.1893388230
H         16.8548681750       23.7480857403       23.5166330805
O         18.5889664669       22.9079942708       24.2839868870
H         18.2957398169       22.1126875771       24.7995938083
C         17.0529842853       21.7606731923       22.7048809147
H         17.8680571638       21.0628036859       22.4777247481
O         16.2120207589       21.2131736859       23.7282977926
H         16.8097513513       20.8879033543       24.4509205701
C         16.2115307912       21.9527819870       21.4129326115
H         15.2383316645       22.3807418550       21.6875264768
C         16.9038783928       22.8558941289       20.3545284290
H         17.7221960539       22.2824348357       19.9001952080
O         17.4342068127       24.0475920234       20.9815560940
C         15.9627929535       23.3020083636       19.2134180917
H         15.6404472668       22.4172046177       18.6486827637
H         16.5268784088       23.9424037546       18.5220343066
O         14.8252106527       24.0035114505       19.7235923824
H         15.1791695421       24.7582509732       20.2448331655
C         23.5807505751       22.7750930940       21.2113505806
H         24.6380369717       22.9934225953       21.0141409166
O         23.3753772436       21.3941869156       21.5636523570
C         23.0468957014       23.6534568387       22.3713394198
H         23.1610848897       24.7029469866       22.0703856241
O         23.7830384390       23.4243267372       23.5811081067
H         23.2775499142       23.9088706606       24.2722058630
C         21.5428117059       23.3870137374       22.6179912089
H         21.4402187294       22.3569295297       22.9838971616
O         21.0610300834       24.2999593879       23.6113601802
H         20.2211860884       23.9046257606       23.9554043414
C         20.7269213050       23.5161078139       21.3011736295
H         20.6503822612       24.5728923081       21.0129604869
C         21.3809680464       22.7232296074       20.1372411450
H         21.2648423020       21.6490385705       20.3369558839
O         22.7870641624       23.0601381155       20.0409033707
C         20.7392842664       23.0236197500       18.7643623870
H         19.6752881113       22.7572402874       18.7981872742
H         21.2140331771       22.3853475169       18.0073451416
O         20.8918760192       24.4024283592       18.4146642675
H         21.8526712550       24.5960959789       18.4909379078
C         25.1806564851       17.7011483283       21.6982608103
H         25.8559561004       16.8368310809       21.7278819167
O         23.8028506933       17.3023686335       21.5546014343
C         25.3250441085       18.5321788596       22.9965967496
H         26.3590389773       18.8984906925       23.0391138140
O         25.0589390614       17.7374327102       24.1602136931
H         24.9892076997       18.3896980041       24.8934147290
C         24.3867654752       19.7592064396       22.9674485906
H         23.3519414515       19.3969173083       23.0161531928
O         24.6638019406       20.6012421081       24.0930980551
H         24.2112484063       21.4632662931       23.9193963417
C         24.5531206447       20.5742201348       21.6614871749
H         25.4690790038       21.1745030412       21.7423925323
C         24.6106813866       19.6863993570       20.3857778154
H         23.5985077105       19.3131676758       20.1797067255
O         25.5110072890       18.5686406643       20.5933527798
C         25.0931126661       20.4465818893       19.1304882612
H         24.3735194227       21.2402008320       18.8910512969
H         25.1058017788       19.7509900841       18.2807295134
O         26.3947942024       21.0043486763       19.3341123023
H         26.9791249932       20.2525916055       19.5790948918
C         21.3300091170       14.0270131809       20.9389658658
H         20.9115276683       13.0476139776       20.6739855573
O         20.2917796339       14.9773975296       21.2471594402
C         22.2938918223       13.9060800517       22.1499364156
H         23.0960659171       13.2156020665       21.8585427717
O         21.6300811345       13.3903876486       23.3111003412
H         22.3005397888       13.4504176582       24.0285794720
C         22.9416502137       15.2698054660       22.4856971900
H         22.1546157530       15.9388054342       22.8605193646
O         23.9443317405       15.0864378094       23.4926923366
H         24.2720766841       15.9892047810       23.7324704778
C         23.5695229285       15.9208326506       21.2281525104
H         24.4971086130       15.3940574927       20.9677632402
C         22.6134439918       15.8930178183       20.0070725947
H         21.7948863773       16.5993735461       20.1918979335
O         22.0854822522       14.5546272095       19.8285823400
C         23.3035292269       16.3039443770       18.6878858589
H         23.7011061154       17.3216769035       18.7913881942
H         22.5503669121       16.3251716811       17.8889605321
O         24.3564715227       15.3944610635       18.3543709585
H         23.9521365620       14.4983652996       18.3609047372
C         20.0470828886       18.9809150432       18.5228080115
H         20.1326917692       20.0648186062       18.4970185693
H         20.2557921038       18.4384532036       17.6027655825
C         19.6993068138       18.3371500613       19.6394530527
H         19.6160960158       17.2520571708       19.6453015365
C         19.3916764711       19.0188716336       20.9530633856
H         18.4724150591       18.5950487341       21.3734023637
H         19.2008998176       20.0873957420       20.7888980553
C         20.5544670201       18.8526488314       21.9553877446
H         20.7608386368       17.7863613779       22.1143953423
H         21.4616831991       19.2826984521       21.5120810324
C         20.2885341015       19.5372150927       23.3169990214
H         20.0100188190       20.5856759027       23.1556504245
H         21.2195604354       19.5523142979       23.8986958476
C         19.1967061371       18.8301625118       24.1620848526
H         18.2420006482       18.7997944981       23.6261578830
H         19.4907625778       17.7932912656       24.3602931043
C         18.9535974108       19.5117523779       25.5041193079
O         19.5738532112       19.1177843585       26.4718062662
O         18.1601144007       20.4343501618       25.5359924019
