   152
VM2 Rank=1      G=565.640           E=364.079           -TS=201.562             
C         16.2434793772       15.2979249426       21.7477998463
H         15.1838526892       15.1319312852       21.9813017036
O         16.4624265790       16.5951727649       21.1579008855
C         17.1058566740       15.1665404570       23.0306772318
H         16.9707883217       14.1446028816       23.4083238091
O         16.7038765273       16.0999549156       24.0460716813
H         15.8512810406       16.5044302475       23.7534841106
C         18.6025000892       15.3659114786       22.7063064405
H         18.7349826841       16.4131875483       22.4137452419
O         19.3743814352       15.0940368028       23.8795275957
H         18.8953411877       15.5609609965       24.6010606574
C         19.0648707052       14.4650099551       21.5321182123
H         19.1736170834       13.4366598098       21.9014501674
C         18.0728497228       14.4913165472       20.3344204731
H         18.1617556679       15.4653340728       19.8351408957
O         16.7139686110       14.3082320297       20.8078614830
C         18.3551666275       13.4020645367       19.2759061582
H         19.3319285595       13.5969347077       18.8136562079
H         17.5990933963       13.4757664502       18.4827521072
O         18.3376282165       12.0959932830       19.8588586225
H         17.4515910133       11.9893466654       20.2711864713
C         14.6490896554       20.2267357791       20.5509119547
H         14.0266434796       21.0922043593       20.2892547250
O         16.0025981466       20.6200174104       20.8622364452
C         14.0424881603       19.4318913161       21.7368424150
H         13.0760712243       19.0376640035       21.3963494796
O         13.8211112809       20.2587640219       22.8884603515
H         14.7114599014       20.5587052215       23.2021573917
C         14.9453122990       18.2280024535       22.0982279110
H         15.8865038693       18.6207118915       22.5083351800
O         14.2817105457       17.4300157041       23.0842894471
H         13.8719199425       18.0770747724       23.7026047565
C         15.2858692482       17.3675164402       20.8494749062
H         14.4323711978       16.7221832276       20.6018249783
C         15.6466753526       18.2111378158       19.5962695364
H         16.6641835203       18.6020020924       19.7177434046
O         14.7103015981       19.3066397615       19.4417286870
C         15.6033104552       17.3664057318       18.3053475647
H         14.5705597816       17.0435377570       18.1176028454
H         16.2150735275       16.4647124110       18.4427203678
O         16.0997952449       18.1271536315       17.2023343247
H         15.5901798960       18.9671730166       17.1984575055
C         18.4261226959       23.7745138089       21.9749676189
H         18.8455986332       24.7286581187       22.3176010680
O         19.4305757325       22.9401200421       21.3632709657
C         17.7908276805       23.0041567820       23.1618149322
H         17.0014912640       23.6449059275       23.5760129504
O         18.7558850999       22.7214547884       24.1882775698
H         19.4930630412       23.3687181592       24.0780295763
C         17.1404438806       21.6861095949       22.6819175726
H         17.9414049396       21.0119534995       22.3576092820
O         16.4332746346       21.0957594715       23.7759914427
H         17.0618529930       21.1501337369       24.5309830470
C         16.1921288638       21.9086479000       21.4767308345
H         15.2484785898       22.3373106321       21.8393576807
C         16.8141199635       22.8310132670       20.3909385498
H         17.6017972005       22.2684483150       19.8723160695
O         17.3860334813       24.0131574583       21.0031094782
C         15.7956793921       23.2950564817       19.3259096008
H         15.4361372882       22.4192654642       18.7695382756
H         16.3082599400       23.9495707949       18.6082708078
O         14.6947662970       23.9828648877       19.9269806820
H         15.0804346011       24.7358425324       20.4278826859
C         23.5887838780       22.7720772235       21.1584462072
H         24.6516380097       22.9700120893       20.9681255495
O         23.3590008051       21.4092106981       21.5637730263
C         23.0464460791       23.6909156159       22.2805545698
H         23.1744371053       24.7280642351       21.9442281379
O         23.7759161092       23.5002609428       23.5037222762
H         23.8538162296       22.5242428359       23.6557512303
C         21.5336155825       23.4467089503       22.5105351891
H         21.4112195863       22.4361672723       22.9244565737
O         21.0578329273       24.4149935260       23.4518855495
H         21.7750434044       24.4865177189       24.1228429929
C         20.7370634384       23.5216504783       21.1744924698
H         20.6618783235       24.5658796515       20.8430646963
C         21.4100941177       22.6872899701       20.0524972959
H         21.2948091139       21.6227129374       20.2871533060
O         22.8136809981       23.0298541558       19.9690540553
C         20.7781513796       22.9434640952       18.6685958289
H         20.9823365941       23.9775468187       18.3603873915
H         19.6890074882       22.8250346511       18.7393873272
O         21.3034111213       22.0182855711       17.7144137966
H         22.2786157908       22.1279426682       17.7354297537
C         25.1453378810       17.7293802511       21.9324748817
H         25.8078136792       16.8602234277       22.0336022500
O         23.7773393909       17.3383813644       21.6932705234
C         25.1944516783       18.5837606079       23.2228558874
H         26.2241562300       18.9455456101       23.3410121797
O         24.8342514511       17.8002098141       24.3715075746
H         24.3173043926       17.0221398215       24.0444129795
C         24.2674309693       19.8137841739       23.0960149717
H         23.2351351652       19.4475338190       23.0884153600
O         24.4547635001       20.6758515059       24.2224446957
H         24.4479756721       20.0769328288       25.0024081279
C         24.5283843364       20.6002607251       21.7852348209
H         25.4303421726       21.2107779408       21.9255148731
C         24.6934110072       19.6860900401       20.5370060589
H         23.7010101510       19.3104563378       20.2544564678
O         25.5678192227       18.5696656790       20.8392643986
C         25.2781578805       20.4192265451       19.3093284921
H         24.5759162856       21.1990330605       18.9875828572
H         25.3707864158       19.7034224395       18.4815182750
O         26.5516314177       20.9964315914       19.6113218682
H         27.1235503607       20.2574821958       19.9168208039
C         21.3798030761       14.0601841231       20.8146385239
H         20.9845975405       13.0876719393       20.4938594411
O         20.3168460831       15.0035339160       21.0608144750
C         22.2624433081       13.9134616847       22.0850056642
H         23.1023422463       13.2590498578       21.8177468069
O         21.5466886061       13.3191355460       23.1778414951
H         20.8095929545       13.9382038962       23.4115260115
C         22.8446975645       15.2850282293       22.5014749621
H         22.0116805733       15.9307231105       22.8129004789
O         23.7562413018       15.1092695137       23.5904694629
H         23.3114114343       14.4768774562       24.1983946130
C         23.5685270894       15.9656106734       21.3132465802
H         24.5141744780       15.4428550430       21.1168593088
C         22.7166370904       15.9572904249       20.0164837407
H         21.8863204132       16.6628681003       20.1338196017
O         22.2172838372       14.6162424626       19.7781526828
C         23.5339324016       16.3731156636       18.7757504691
H         24.3308328704       15.6376302700       18.6026809354
H         24.0109965046       17.3431665446       18.9611622820
O         22.6788001969       16.4640819760       17.6349460852
H         22.2138031163       15.6013163243       17.5755454827
C         20.0806542401       18.9272418071       23.4684862793
H         20.5478226749       19.5652642297       24.2298975579
H         18.9991380535       18.9124936351       23.6585546596
H         20.4659378234       17.9076007636       23.5991673727
C         20.3880854828       19.4588023871       22.0538872474
H         21.4706952318       19.4602963145       21.8879878331
H         20.0585554834       20.5003043774       21.9756881851
C         19.7162051099       18.6081624883       20.9602527757
H         20.0519820615       17.5718267324       21.0674567326
H         18.6264857013       18.6093964195       21.1004258464
C         20.0665456711       19.1082292055       19.5435623508
H         21.1546562477       19.2306229048       19.4503141146
H         19.6178624979       20.0980865568       19.3819496106
C         19.5762057777       18.1285486818       18.4574058222
H         20.0344354207       17.1423207080       18.6137583336
H         18.4927329167       17.9904237025       18.5457363259
C         19.9154332606       18.6337168275       17.0405125311
H         21.0036995617       18.7450486571       16.9399445702
H         19.4738091055       19.6274148895       16.8853903970
C         19.3935135291       17.6642842431       15.9673171912
H         19.8351330333       16.6759315805       16.1203866454
H         18.3063122346       17.5749433470       16.0510145439
N         19.7224298221       18.1104284946       14.5579897952
H         19.3648498105       17.4526006669       13.8574237937
H         20.7343220239       18.1865157888       14.4125390471
H         19.3149398205       19.0268404315       14.3466536785
