   143
VM2 Rank=1      G=487.834           E=306.153           -TS=181.680             
C         16.3209245743       15.2747588825       20.7803122369
H         15.2659157273       15.1429102096       20.5076573133
O         16.5654510782       16.5798540184       21.3377065299
C         16.7515394058       14.2102414058       21.8231310088
H         16.5680592073       13.2240021558       21.3773367224
O         15.9926834348       14.3303132890       23.0349705985
H         16.4248581770       13.7070879193       23.6613219302
C         18.2624608850       14.3132973190       22.1447569064
H         18.4345560787       15.2548648587       22.6852263950
O         18.6471602144       13.2011116994       22.9621881513
H         19.6072375658       13.3198245441       23.1720270845
C         19.1156230074       14.3387562387       20.8518263209
H         19.1191141568       13.3384128242       20.3990985741
C         18.5702577131       15.3566570793       19.8173841386
H         18.7298608088       16.3694179872       20.2068046574
O         17.1555702345       15.1244461907       19.6122705557
C         19.2648748615       15.2565603530       18.4413862911
H         20.3384484041       15.4482490365       18.5648025121
H         18.8643330967       16.0419709436       17.7867851700
O         19.0578135794       13.9683047117       17.8547356994
H         18.0851685948       13.8256180254       17.8509349589
C         14.7216182271       20.2594666463       21.8301727383
H         14.0089395671       21.0840236478       21.9567635870
O         16.0695134454       20.7397177616       21.6572722574
C         14.6736020201       19.3275522679       23.0674747755
H         13.6503141943       18.9368639398       23.1407985946
O         14.9909861473       20.0396846852       24.2712087467
H         15.1065964573       19.3380500104       24.9508623583
C         15.6277221786       18.1230481244       22.8978663028
H         16.6597983019       18.4958974459       22.9343320307
O         15.4089363609       17.1857712727       23.9594065367
H         15.8079798569       16.3309024274       23.6646022872
C         15.4079659216       17.4116827360       21.5402990666
H         14.4868894804       16.8175716719       21.6101261497
C         15.3087387143       18.4042210242       20.3467787145
H         16.3064441277       18.8235089388       20.1599417109
O         14.3809150210       19.4693662766       20.6718258151
C         14.8198946662       17.7529096438       19.0336590384
H         15.5665735756       17.0250906513       18.6914130340
H         14.7473993836       18.5300478674       18.2610818364
O         13.5524578818       17.1142409251       19.2140380913
H         12.9386635586       17.8098797814       19.5392958282
C         18.3749859063       24.1320872314       21.1309957224
H         18.7587473076       25.1424357221       20.9423078608
O         19.4408884014       23.1716352009       21.2838359280
C         17.5148585731       24.1251111721       22.4196180308
H         16.6728128684       24.8105774263       22.2577279157
O         18.2716047246       24.5665706711       23.5549017290
H         17.7019242828       24.3562042768       24.3289079112
C         16.9384036336       22.7165692547       22.6869696823
H         17.7770794228       22.0496899738       22.9237602177
O         16.0293953893       22.7700078302       23.7933093671
H         15.7344851794       21.8402367977       23.9621268329
C         16.2158503039       22.1553388035       21.4373379068
H         15.2474015259       22.6602847239       21.3243700594
C         17.0371884064       22.3414700871       20.1321113321
H         17.8826959820       21.6440190905       20.1471616646
O         17.5300345213       23.7017843465       20.0428940070
C         16.2147721859       22.0559800816       18.8565029816
H         15.8465293617       21.0223345519       18.8897018301
H         16.8758810274       22.1424353015       17.9839499835
O         15.1179944313       22.9668161342       18.7391140124
H         15.5065403955       23.8681365721       18.7974267359
C         23.5307232730       22.6374539959       20.7790558750
H         24.5935494389       22.7462859560       20.5278890728
O         23.2186358268       21.2783397158       21.1466135275
C         23.1315265764       23.6071848288       21.9266222490
H         23.3193155601       24.6256638341       21.5635396783
O         23.9345721751       23.3848980741       23.0961882204
H         23.6646889667       22.5069251934       23.4645333286
C         21.6155301852       23.4954173894       22.2429704582
H         21.4250059376       22.5048548939       22.6800645838
O         21.2183382609       24.5233615550       23.1595247200
H         20.2468404364       24.4141807616       23.3086881568
C         20.7658045517       23.6316819346       20.9539855390
H         20.7709603096       24.6838166587       20.6401333511
C         21.2954453737       22.7564439262       19.7878221655
H         21.0921142962       21.7043331596       20.0225419486
O         22.7214196635       22.9661806662       19.6306147362
C         20.6262560549       23.0772668886       18.4330836734
H         19.5474120564       22.8922125556       18.5110578664
H         21.0222000364       22.3897201913       17.6738455835
O         20.8681422219       24.4339894609       18.0483435608
H         21.8441056845       24.5509800157       18.0643878251
C         24.9131826510       17.6970937388       22.3244544055
H         25.5524529316       16.8853887893       22.6942339857
O         23.7395327459       17.1872140834       21.6549782580
C         24.4764801949       18.6149420853       23.4960649239
H         25.3870044990       19.0563747947       23.9213747524
O         23.8174433896       17.8444608456       24.5147266360
H         23.0324116632       18.3595046021       24.8396134040
C         23.5916694882       19.7774842905       22.9780811708
H         22.6518779771       19.3553189224       22.6078667298
O         23.3301038902       20.7062681274       24.0384055319
H         22.6739274144       20.2662593831       24.6378384417
C         24.2615347732       20.5210231924       21.7942490239
H         25.0545824794       21.1684715839       22.1907472745
C         24.8554797413       19.5523304190       20.7320643033
H         24.0230837459       19.0959808728       20.1798487872
O         25.6355503137       18.5174322836       21.3817911422
C         25.7685493993       20.2498767476       19.6991502197
H         25.1669621574       20.9497361447       19.1042827622
H         26.1628568587       19.4919807932       19.0089813843
O         26.8428076958       20.9435298757       20.3403590994
H         27.3233298323       20.2728535025       20.8750064926
C         21.4859075671       13.7818586236       21.1139569352
H         21.0839100791       12.7797253376       20.9190343113
O         20.4386280019       14.7687697427       21.2276637059
C         22.3136356283       13.7739835763       22.4209015220
H         23.1533086022       13.0826775074       22.2713903777
O         21.5295111338       13.3254249212       23.5346044861
H         22.0888267066       13.5148071725       24.3215527155
C         22.8996315852       15.1734661884       22.7161853433
H         22.0648389163       15.8460750412       22.9597373589
O         23.7851421046       15.0691467545       23.8370668443
H         23.8799159251       15.9869606444       24.1941449528
C         23.6494600251       15.7573085988       21.4854359620
H         24.6435482135       15.2977305002       21.4062060708
C         22.8872451368       15.5378923811       20.1480773439
H         22.0508429693       16.2444411355       20.1106293012
O         22.3778751660       14.1840693044       20.0547843271
C         23.7693647550       15.7956463936       18.9067970234
H         24.1515080184       16.8245442947       18.9457901479
H         23.1459349003       15.7083973997       18.0069252230
O         24.8561844001       14.8672260263       18.8481158469
H         24.4516630235       13.9726346708       18.9036730092
C         20.3648848894       19.6537214249       25.2780509061
O         19.9138710197       20.2877715608       26.2111944689
O         21.4346175122       19.0721313414       25.3260824220
C         19.6225054003       19.7031984709       23.9901850078
H         18.7586318458       20.3609790937       23.9705713051
C         19.9795374199       19.0091987216       22.8862252203
H         20.8212141479       18.3191136018       22.9108235644
C         19.2738780349       19.1414623587       21.5559882667
H         18.8773189464       20.1583234082       21.4563503669
H         18.4183961260       18.4593738456       21.5194853977
C         20.2204206091       18.8413457036       20.3774792322
H         21.1177326401       19.4696679727       20.4515040905
H         20.5600392032       17.8019411859       20.4473324782
C         19.5323945809       19.0728654914       19.0168206170
H         20.2088462798       18.8113746398       18.1931831660
H         18.6272515250       18.4595364521       18.9232295248
H         19.2457711608       20.1248278312       18.8976581663
