    20
VM2 Rank=1      G=27.005            E=4.317             -TS=22.689              
N         19.7357945645       18.9391156751       25.6478663937
H         20.2631662570       19.1851057052       26.4922411302
H         18.8386659290       19.4314430991       25.7041014105
H         19.5331328437       17.9361507480       25.7059776749
C         20.4972626251       19.2911916705       24.3858439821
H         21.4511122790       18.7571156381       24.4070778931
H         20.7044755075       20.3646016412       24.4050477766
C         19.7325763845       18.9343993998       23.0985117583
H         19.5127299680       17.8584443266       23.0909578576
H         18.7685406406       19.4603392713       23.0890449175
C         20.5420861168       19.3089759837       21.8371165170
H         21.5080618559       18.7850999732       21.8524516572
H         20.7647182404       20.3851017676       21.8505390875
C         19.7838689865       18.9551632432       20.5380959282
H         19.5610033360       17.8790422272       20.5195731310
H         18.8177559051       19.4788565132       20.5176572004
C         20.5964113227       19.3311540276       19.2805654208
H         20.0420370466       19.0725301368       18.3690692954
H         20.8056436951       20.4085000843       19.2529364977
H         21.5546911574       18.7961287302       19.2548461178
    20
VM2 Rank=2      G=27.308            E=4.519             -TS=22.789              
N         20.6068271206       18.3919347957       25.0324067120
H         21.4065789172       18.1398107612       24.4442972006
H         20.9676614841       18.5358659272       25.9814079714
H         19.9887081202       17.5753840220       25.0695916749
C         19.8879715923       19.6213821438       24.5112667335
H         20.5935020511       20.4566037423       24.5202088891
H         19.0786094407       19.8527045746       25.2091462115
C         19.3062441146       19.4490683155       23.0944307602
H         18.6022066168       18.6063153298       23.0872849265
H         18.7229592423       20.3461282228       22.8473874712
C         20.3992607189       19.2367713905       22.0199832220
H         20.9646877637       18.3208463345       22.2376597840
H         21.1154188506       20.0695184514       22.0565147819
C         19.7979664097       19.1368420133       20.6001612141
H         19.0800901140       18.3055838826       20.5588358837
H         19.2355290849       20.0525218026       20.3694811384
C         20.8897300439       18.9240013411       19.5297513582
H         20.4435564923       18.8561846135       18.5290685635
H         21.6047006473       19.7570622281       19.5236814546
H         21.4473661616       17.9963085143       19.7131113145
    20
VM2 Rank=3      G=27.348            E=4.559             -TS=22.789              
N         19.8800065769       19.9563530964       25.0304209486
H         20.2037750049       20.7289230160       24.4410562676
H         18.8572870679       20.0107326364       25.0664332168
H         20.2217518031       20.1412186817       25.9793972610
C         20.3564277425       18.6129657550       24.5125250948
H         20.0104594886       17.8466855817       25.2116200247
H         21.4497469336       18.6134457233       24.5225922126
C         19.8509926270       18.2766458702       23.0958563911
H         20.1606927119       17.2518609002       22.8511716567
H         18.7528774777       18.2820256949       23.0876194040
C         20.3946471160       19.2467707409       22.0199889401
H         21.4929033833       19.2571402571       22.0575288083
H         20.0590795018       20.2700190728       22.2353135278
C         19.9318125656       18.8488422459       20.6005268689
H         20.2691905252       17.8280345326       20.3721692925
H         18.8335897597       18.8361231234       20.5582384342
C         20.4741133721       19.8184222916       19.5286817565
H         20.1245068386       20.8432140521       19.7097081637
H         21.5718830654       19.8276636741       19.5235547100
H         20.1354392412       19.5191649867       18.5282908723
    20
VM2 Rank=4      G=27.495            E=4.711             -TS=22.784              
N         19.6444739210       19.3205400425       25.4425376697
H         20.2498849447       18.6687435792       25.9514590705
H         19.6157151349       20.1876931998       25.9891375262
H         18.6980857196       18.9275498665       25.4587319045
C         20.1337023957       19.5617328475       24.0287289561
H         21.1309818103       20.0060230225       24.0877436953
H         19.4619644478       20.2858266438       23.5605809582
C         20.1886020613       18.2768556140       23.1804555038
H         20.8313715022       17.5422202055       23.6835277120
H         19.1871836159       17.8299945349       23.1218053354
C         20.7317172631       18.5247966980       21.7531968841
H         20.8305309000       17.5578450629       21.2406572539
H         21.7440713568       18.9479243439       21.8143406910
C         19.8273293807       19.4556574400       20.9108717399
H         18.8070554625       19.0485746177       20.8750973444
H         19.7576916733       20.4453229456       21.3824019878
C         20.3621749781       19.6204173581       19.4722092463
H         19.7097961847       20.2837452537       18.8895926532
H         21.3701219776       20.0554599513       19.4730949805
H         20.4076743186       18.6535926091       18.9541466293
    20
VM2 Rank=5      G=27.506            E=4.722             -TS=22.784              
N         19.9685044872       18.6227085577       25.4433610521
H         20.6121175570       18.0425764213       25.9917765971
H         19.8602440323       19.5067393060       25.9504432777
H         19.0578149390       18.1528823933       25.4595089633
C         20.4698389299       18.8383095633       24.0296600215
H         20.5904942311       17.8570488096       23.5635334919
H         21.4524944260       19.3140553474       24.0887896148
C         19.5241829217       19.7072804633       23.1787161365
H         18.5368461715       19.2301109862       23.1200646703
H         19.3768736232       20.6733217049       23.6797012483
C         20.0653587609       19.9595149547       21.7514745625
H         21.0416947237       20.4601878420       21.8125573095
H         19.3907588274       20.6578046389       21.2369255917
C         20.1939643751       18.6663155795       20.9118143000
H         20.9048261420       17.9756095631       21.3853419127
H         19.2247705528       18.1492572338       20.8761978674
C         20.6661505253       18.9658708814       19.4729739275
H         20.7526853804       18.0383307771       18.8922635889
H         19.9571933870       19.6232907797       18.9529853432
H         21.6487772991       19.4554247897       19.4737597097
    20
VM2 Rank=6      G=27.624            E=4.826             -TS=22.799              
N         19.4823075608       19.4056958429       25.4132957781
H         18.6900558252       18.7559253334       25.4356398734
H         19.9096703539       19.3853445571       26.3452447281
H         19.0969001672       20.3464500313       25.2837654325
C         20.4786214776       19.0472005682       24.3291287750
H         20.8694513312       18.0494893117       24.5466561852
H         21.3066040979       19.7592994201       24.3826603992
C         19.8688486941       19.0677028628       22.9159650990
H         19.0278838075       18.3630101715       22.8712672531
H         19.4642778909       20.0678004187       22.7154844207
C         20.9189537940       18.6941186885       21.8431896781
H         21.3668282297       17.7248438152       22.1032944164
H         21.7384998778       19.4260665169       21.8567364212
C         20.3341093531       18.5983613327       20.4129939024
H         21.1169653702       18.2287193935       19.7359114663
H         19.5297221039       17.8498403479       20.3894677913
C         19.8051591204       19.9469207050       19.8734267675
H         19.4871742080       19.8440692969       18.8278361498
H         18.9393982737       20.2996969766       20.4473876948
H         20.5828648890       20.7206482904       19.9125956659
    20
VM2 Rank=7      G=27.631            E=4.832             -TS=22.798              
N         19.9290941952       18.4438548748       25.4144368205
H         20.3994589228       17.5422566120       25.2871061575
H         20.1883751974       18.7853816078       26.3459482195
H         18.9215132888       18.2576557750       25.4362329676
C         20.2988231230       19.4342817877       24.3286508796
H         21.3770138667       19.6077165074       24.3828042283
H         19.7883639864       20.3769427164       24.5438589037
C         19.9224113328       18.9523229836       22.9161031176
H         20.4257646074       17.9976246292       22.7179841963
H         18.8414886969       18.7642670418       22.8707878032
C         20.3153835450       19.9935601632       21.8416147329
H         21.4033415493       20.1476124868       21.8558673778
H         19.8634487064       20.9615801568       22.0993619019
C         19.8662660536       19.6055794724       20.4117798769
H         18.7754388360       19.4737270386       20.3875120590
H         20.0894395104       20.4408639093       19.7332277474
C         20.5560217504       18.3304007182       19.8754145725
H         20.2733054105       18.1516768612       18.8299097999
H         21.6488834014       18.4256243890       19.9154390372
H         20.2665544579       17.4424404041       20.4508787318
    20
VM2 Rank=8      G=27.903            E=5.022             -TS=22.881              
N         19.4805019566       19.1733286435       25.1477396621
H         19.6590139015       19.4561453844       26.1170951233
H         18.8426402796       19.8674561170       24.7474158253
H         18.9742628707       18.2831220854       25.1857945134
C         20.7649126995       19.0590924318       24.3493647656
H         21.4080161565       18.3368970097       24.8597087886
H         21.2645466474       20.0314394456       24.3680391175
C         20.5553084850       18.6116139815       22.8893309688
H         21.5429057023       18.4472465573       22.4407295668
H         20.0378541473       17.6432742763       22.8735758029
C         19.7662328362       19.6499620380       22.0524860661
H         20.3014356128       20.6096618699       22.0539782646
H         18.7936044623       19.8379591306       22.5260452342
C         19.5138290356       19.2013641718       20.5923376527
H         18.9665324531       18.2483251014       20.5853856707
H         18.8561145988       19.9361176681       20.1070649131
C         20.8072149871       19.0646387334       19.7567408847
H         21.4449044142       18.2533011544       20.1286986098
H         20.5658039088       18.8393764455       18.7098763141
H         21.3888962392       19.9954282087       19.7735216685
    20
VM2 Rank=9      G=27.907            E=5.002             -TS=22.906              
N         19.8976719696       19.9228039628       24.9640835634
H         19.0638470010       20.2911198372       24.4970529637
H         19.6811419166       19.8708248193       25.9650302611
H         20.6392380477       20.6216813646       24.8555258729
C         20.3071120056       18.5735060334       24.4059579486
H         19.4854060320       17.8724735237       24.5755999923
H         21.1729284366       18.2270417884       24.9768499958
C         20.6625193154       18.6028911553       22.9066281483
H         21.4890177672       19.3068809187       22.7469902864
H         21.0339603483       17.6106937600       22.6180151886
C         19.4525396392       18.9775646020       22.0145374307
H         19.1256151149       20.0026629443       22.2344039624
H         18.6069226799       18.3217992698       22.2645857716
C         19.7433346671       18.8497770692       20.4994886201
H         20.0431885832       17.8190627596       20.2637579490
H         18.8124628480       19.0329188389       19.9446395180
C         20.8248224032       19.8334571773       19.9973042887
H         20.9303651122       19.7644280577       18.9068775069
H         20.5610679991       20.8701766283       20.2435481372
H         21.8053893140       19.6140288316       20.4375387834
    20
VM2 Rank=10     G=27.930            E=5.024             -TS=22.906              
N         20.5940717862       18.4279688630       24.9658793874
H         21.6063034370       18.5458928622       24.8580951429
H         20.4139775166       18.2975979939       25.9669033806
H         20.3400974083       17.5517373283       24.5003124273
C         19.8250187553       19.6083697128       24.4046688016
H         20.1162663570       20.4952593034       24.9740504282
H         18.7595256040       19.4306419761       24.5736752116
C         20.0775707145       19.8585233009       22.9050678089
H         19.5572540295       20.7806599396       22.6141102078
H         21.1484095287       20.0379830325       22.7460619100
C         19.5867309856       18.6893720160       22.0148874076
H         18.5403785936       18.4645462764       22.2643279150
H         20.1608287343       17.7799628989       22.2372263441
C         19.6775936790       18.9910605898       20.4993051246
H         19.2192503155       18.1595746525       19.9457047355
H         19.0819127825       19.8834116747       20.2611286890
C         21.1270140794       19.1847055175       19.9981914699
H         21.5897206708       20.0772973132       20.4371079380
H         21.7504852467       18.3161055308       20.2468019341
H         21.1432083519       19.3077259969       18.9075323142
    20
VM2 Rank=11     G=28.037            E=5.023             -TS=23.014              
N         19.9271513024       19.7543331967       25.1737065427
H         19.4491799389       19.0289914095       25.7175201924
H         20.6501151232       20.1534220809       25.7816035246
H         19.2439993633       20.4974441831       24.9967569890
C         20.5123633124       19.2049287460       23.8884040518
H         21.2499433728       18.4420364410       24.1517475680
H         21.0295883011       20.0220553421       23.3787304417
C         19.4513388959       18.5977795671       22.9512712648
H         18.9100368104       17.8065485198       23.4867201525
H         18.7053361450       19.3603687615       22.6936042467
C         20.0639043230       17.9983692966       21.6607435432
H         19.2571163960       17.5742541338       21.0471614774
H         20.7121634515       17.1538133438       21.9327337561
C         20.8810602234       18.9981332721       20.8028681416
H         21.7554795384       19.3540564904       21.3645494744
H         21.2813007531       18.4644972002       19.9294150516
C         20.0521819429       20.2064559214       20.3110064560
H         19.1598366981       19.8765758475       19.7633975089
H         19.7288478796       20.8399218756       21.1463573302
H         20.6487218724       20.8320546025       19.6344921206
    20
VM2 Rank=12     G=28.045            E=5.164             -TS=22.881              
N         19.7505235402       18.5918975098       25.1484410416
H         18.7437011743       18.7794099202       25.1850613657
H         19.8698554374       17.6559018505       24.7501802440
H         20.0807755804       18.5478709151       26.1182329953
C         20.4926148426       19.6453716902       24.3486569882
H         21.5578688262       19.3998730801       24.3688354914
H         20.3552072798       20.6036806298       24.8569519753
C         20.0168649266       19.7709832501       22.8879199081
H         18.9431728490       20.0002836869       22.8706958983
H         20.5288292573       20.6307230816       22.4380884763
C         20.3019627798       18.4965390453       22.0538752369
H         19.8177104424       17.6330342288       22.5287080658
H         21.3805183868       18.2863565253       22.0567789276
C         19.7977090376       18.5901734945       20.5930731300
H         19.9353263601       17.6126781298       20.1098483385
H         18.7164320412       18.7867338767       20.5847366947
C         20.5283248732       19.6650350100       19.7560336952
H         21.6147748461       19.5091430470       19.7741440851
H         20.2014523957       19.6237974234       18.7089420400
H         20.3193469327       20.6764084550       20.1257922278
    20
VM2 Rank=13     G=28.058            E=5.091             -TS=22.967              
N         20.5227672089       19.9297187371       24.7150732942
H         21.0689678253       20.3997749520       23.9871681415
H         20.1681519904       20.6590727149       25.3425165556
H         21.1743795647       19.3576173539       25.2611635462
C         19.3999193418       19.0985950312       24.1255938048
H         18.7283408838       19.7703545839       23.5848641594
H         18.8409632841       18.6581295408       24.9557258709
C         19.8853863484       17.9768516198       23.1845480414
H         20.5217875645       17.2836846962       23.7504984980
H         19.0156834222       17.3929956219       22.8550206035
C         20.6595974254       18.4848911853       21.9420862990
H         20.9826181767       17.6158923648       21.3522694081
H         21.5786771110       18.9967084472       22.2573558273
C         19.8208069825       19.4231899652       21.0422100634
H         18.8913946818       18.9177642331       20.7444821786
H         19.5277157037       20.3228178816       21.6000918812
C         20.5995226930       19.8467534614       19.7784884972
H         21.5200069139       20.3833424041       20.0429524443
H         20.8749622576       18.9736191690       19.1727093463
H         19.9903927685       20.5116613288       19.1524780477
    20
VM2 Rank=14     G=28.062            E=5.047             -TS=23.014              
N         20.4831263825       18.5589173307       25.1752026779
H         21.2535538258       18.8559388177       25.7832393872
H         19.6199222309       18.6618201886       25.7179723555
H         20.6114626073       17.5573152771       25.0004273789
C         20.4412492684       19.3578235640       23.8882203175
H         21.3999028541       19.2258676183       23.3797387245
H         20.3327836957       20.4139717093       24.1493026563
C         19.2942018885       18.9356648601       22.9508377112
H         19.3969943462       17.8732809812       22.6954417591
H         18.3398139408       19.0325816908       23.4851675920
C         19.2317190623       19.7877024567       21.6585045414
H         19.0032968127       20.8281859681       21.9281521620
H         18.3881136598       19.4427370681       21.0448335991
C         20.5236067099       19.7666765597       20.8018794016
H         20.3741972680       20.4147536189       19.9269200131
H         21.3586725020       20.2072599150       21.3634198732
C         20.9140966884       18.3532152289       20.3133553504
H         20.0874007140       17.8821958718       19.7659150513
H         21.7775571001       18.4049197520       19.6375847532
H         21.1893863923       17.6995351851       21.1503462028
    20
VM2 Rank=15     G=28.065            E=5.098             -TS=22.967              
N         21.0016949047       18.9020462980       24.7164451025
H         20.9820835314       19.7701271118       25.2606534068
H         21.3315157442       18.1627872356       25.3458166224
H         21.7136674048       19.0164615270       23.9890281110
C         19.6437385450       18.5754328571       24.1262559877
H         18.9461147250       18.4324107754       24.9559704060
H         19.7268231168       17.6280012923       23.5876107851
C         19.0979168185       19.6666029741       23.1823399184
H         18.0918112656       19.3754324799       22.8524443519
H         18.9758720851       20.6009372247       23.7461762200
C         19.9861064885       19.9300476658       21.9401904694
H         20.9688242322       20.3053066042       22.2556354701
H         19.5290252024       20.7350420913       21.3482049270
C         20.1660006463       18.6823678287       21.0431469900
H         20.6657279254       17.8804874405       21.6032589815
H         19.1815129191       18.2951840350       20.7451930672
C         20.9925425970       19.0035023761       19.7796215320
H         21.9952136898       19.3636510635       20.0443931337
H         21.1104561376       18.1081146336       19.1555954327
H         20.5018482601       19.7747833374       19.1717210874
    20
VM2 Rank=16     G=28.529            E=5.312             -TS=23.217              
N         19.3249531207       19.3699237848       24.7368124282
H         19.4601626478       18.5624301971       25.3530195475
H         19.0712667379       20.1628640199       25.3353092839
H         18.5129774283       19.1674103621       24.1463684899
C         20.5617280614       19.6610220352       23.9093750733
H         21.3760713756       19.8976198446       24.5995738294
H         20.3634984832       20.5481793902       23.3022600481
C         20.9868093271       18.4918540201       22.9979819378
H         21.9265827390       18.7573342017       22.4971071657
H         21.2160558148       17.6165132785       23.6199644429
C         19.9241089711       18.1003966700       21.9375949865
H         19.0437362077       17.6811087476       22.4429128511
H         20.3260011452       17.2869240838       21.3179630163
C         19.4686052440       19.2596459986       21.0147224265
H         18.7050297065       18.8776123780       20.3227309814
H         18.9753561363       20.0440841658       21.6045157233
C         20.6217952758       19.8771574913       20.1915131477
H         21.1428139051       19.1097553776       19.6044917740
H         20.2349873740       20.6294578114       19.4920071261
H         21.3564681692       20.3740570344       20.8372273638
    20
VM2 Rank=17     G=28.565            E=5.347             -TS=23.218              
N         19.8008001045       18.3452873380       24.7379008371
H         19.2705739111       18.9706826050       25.3525385211
H         19.1226978700       17.8545358256       24.1477493691
H         20.2424239024       17.6409319575       25.3380338780
C         20.8218777432       19.1009053411       23.9099881530
H         21.3724009300       18.3759589945       23.3047544054
H         21.5273766679       19.5717852674       24.5999532147
C         20.2036333491       20.1782316935       22.9959703290
H         19.6821523722       20.9193024442       23.6160589819
H         21.0132266483       20.7240359384       22.4947843228
C         19.2199090947       19.6167812018       21.9357550177
H         18.8583457448       20.4474497031       21.3140946680
H         18.3310412965       19.2157455753       22.4410179361
C         19.8125495941       18.5189389708       21.0156687382
H         20.0929809495       17.6371321050       21.6075070104
H         19.0286809242       18.1807107652       20.3235698147
C         21.0292301143       18.9998554548       20.1927169250
H         20.7797361509       19.8919103685       19.6036901469
H         21.8822526045       19.2417703675       20.8388064920
H         21.3550638224       18.2175389439       19.4950779642
    20
VM2 Rank=18     G=29.640            E=6.955             -TS=22.685              
N         20.4973374045       18.6695396639       25.2001231371
H         21.4153650801       18.4425340423       25.5965933220
H         20.1100205736       19.4315618988       25.7654705608
H         19.8989700578       17.8507529096       25.3480393050
C         20.5932658516       19.0436786014       23.7347120408
H         21.0392627050       18.1986389334       23.2053202462
H         21.2645423749       19.9023144141       23.6479451666
C         19.2297399703       19.3850325697       23.1078548824
H         18.5797433034       18.5006787161       23.1426207776
H         18.7411682435       20.1530606986       23.7221443740
C         19.3207978649       19.9067543594       21.6513409354
H         19.9219873315       20.8257749490       21.6149475673
H         18.3082939922       20.2023723971       21.3431218445
C         19.8535326693       18.8773704733       20.6209272944
H         19.4946437738       17.8687248101       20.8690650191
H         19.4220638417       19.1177164099       19.6390052124
C         21.3933262394       18.8776243323       20.4730417100
H         21.6998400194       18.1909854661       19.6733164569
H         21.7636081360       19.8773444428       20.2114041930
H         21.8991903122       18.5569051601       21.3896172627
    20
VM2 Rank=19     G=29.671            E=6.986             -TS=22.685              
N         20.0212824396       19.6939943374       25.1988250376
H         20.3533656863       18.9077268474       25.7661111687
H         20.4394055888       20.5428364847       25.5939628321
H         19.0094760141       19.7649853795       25.3455993388
C         20.3705309712       19.5230378666       23.7341060808
H         21.4597504557       19.4822344440       23.6484795610
H         20.0127736315       20.4077488205       23.2025460937
C         19.7527785347       18.2594722829       23.1092438611
H         20.0242256508       17.3920407064       23.7255239944
H         18.6576741226       18.3329656332       23.1428784421
C         20.2115799992       17.9897453797       21.6536811936
H         19.7849057668       17.0246322077       21.3469910959
H         21.3017071381       17.8565564056       21.6185507530
C         19.7692785451       19.0586677202       20.6207402672
H         19.6756273311       18.5719531466       19.6396988910
H         18.7667116474       19.4352893413       20.8672291529
C         20.7625495103       20.2350824132       20.4714035597
H         20.8428538748       20.8303334677       21.3868796714
H         21.7656402072       19.8729008919       20.2113355344
H         20.4360970404       20.9105675163       19.6700727878
    20
VM2 Rank=20     G=29.931            E=7.127             -TS=22.804              
N         18.9505880459       19.5068748771       24.3938005619
H         18.5749351455       19.8375682650       23.5013033562
H         18.4532290460       18.6424113072       24.6296788544
H         18.6935551342       20.2003137660       25.1042366049
C         20.4511381750       19.2940429142       24.3336333310
H         20.7643521095       18.9562413246       25.3252707823
H         20.9321881895       20.2559450870       24.1369829957
C         20.9052154153       18.2569977668       23.2849064066
H         21.8930993432       17.8859842004       23.5887234625
H         20.2378213789       17.3851977606       23.3039691417
C         21.0296973181       18.8109742860       21.8422061291
H         21.4670706386       18.0249795307       21.2110187512
H         21.7451446681       19.6449230911       21.8307317466
C         19.6929404870       19.2696245158       21.2136913705
H         18.9390397793       18.4767972017       21.3185769205
H         19.3133829049       20.1539376396       21.7407382224
C         19.8584205587       19.6214856401       19.7197622009
H         20.1999626407       18.7515440778       19.1437643529
H         18.9038978022       19.9540181509       19.2915572016
H         20.5885383790       20.4298869868       19.5830724775
    20
VM2 Rank=21     G=29.933            E=7.129             -TS=22.803              
N         19.6641584180       17.9703193472       24.3956481674
H         18.6825837831       18.1485320515       24.6302836112
H         19.6752654609       17.4681947537       23.5041464949
H         20.0274765254       17.3279426041       25.1076828376
C         20.4697480908       19.2539665768       24.3336933167
H         21.5152136344       19.0004998978       24.1385176713
H         20.4128194650       19.7131712590       25.3243739145
C         19.9713730138       20.2679138336       23.2824985051
H         18.8746870713       20.3205572785       23.3004566870
H         20.3250384432       21.2626423653       23.5846683331
C         20.4762524966       20.0027349172       21.8407815822
H         21.5750175965       20.0112108446       21.8303051274
H         20.1585633065       20.8427934532       21.2076504906
C         19.9647072463       18.6843117351       21.2143687660
H         20.3948623405       17.8247727719       21.7435289843
H         18.8724516809       18.6201391136       21.3183094138
C         20.3417607344       18.5807535901       19.7210096626
H         21.4305996507       18.6166298603       19.5853200685
H         19.9802966955       17.6361297919       19.2943006370
H         19.8981205724       19.4018918707       19.1429632662
    20
VM2 Rank=22     G=30.230            E=7.239             -TS=22.991              
N         20.8335554049       18.6163593702       24.6872383495
H         20.1090632041       18.2859164958       25.3322254822
H         21.0984054293       17.8225823360       24.0969344677
H         21.6532799946       18.8531584506       25.2558535020
C         20.3595037056       19.7979856186       23.8633478604
H         21.1854647489       20.1157908032       23.2251402968
H         20.1374887287       20.6137509266       24.5567177690
C         19.1059945136       19.5021702653       23.0125080936
H         18.3042911250       19.1774273866       23.6889945297
H         18.7511732306       20.4335466310       22.5517923751
C         19.3054165929       18.4218381043       21.9154973973
H         18.3196117377       17.9995879823       21.6760874640
H         19.8966988302       17.5817741970       22.3020203273
C         19.9221380555       18.9380269919       20.5898883315
H         19.9267157146       18.1101891929       19.8669699247
H         19.2748803722       19.7136769240       20.1572142787
C         21.3613917274       19.4836196497       20.7195199676
H         21.3784224006       20.4444126969       21.2473817685
H         22.0098130346       18.7763926431       21.2525682419
H         21.7962330442       19.6533679148       19.7260270967
    20
VM2 Rank=23     G=30.259            E=7.267             -TS=22.991              
N         20.1979003216       19.9842551154       24.6854749626
H         20.9069183601       20.4593316930       25.2537547229
H         19.7624940298       20.6972685116       24.0932610777
H         19.4775754296       19.6449036722       25.3305044755
C         20.7961936287       18.8582790412       23.8645062865
H         21.2758863825       18.1640142026       24.5597884522
H         21.5723140305       19.2833419448       23.2261660568
C         19.7626423879       18.0891414114       23.0142583551
H         20.2462014258       17.2164539501       22.5557757935
H         18.9968575374       17.6871161118       23.6908449423
C         19.0664863185       18.9359141913       21.9148662814
H         18.8052048819       19.9302950462       22.2991326061
H         18.1083523866       18.4541370008       21.6755048590
C         19.8599654410       19.0718487190       20.5897451858
H         20.0360072633       18.0761181628       20.1592653774
H         19.2307976730       19.6075961244       19.8651278635
C         21.2048119022       19.8205615218       20.7191489286
H         21.0817338522       20.7732479193       21.2501863708
H         21.9497543970       19.2152023918       21.2489155671
H         21.6158485816       20.0415490739       19.7255985066
    20
VM2 Rank=24     G=30.693            E=7.505             -TS=23.189              
N         21.1751888916       18.9010088435       24.3537932288
H         20.8479987524       18.1586621211       24.9798590492
H         21.6389226284       18.4475950080       23.5610881132
H         21.8921970303       19.4275951502       24.8636058724
C         20.0380433451       19.7934926156       23.8964349691
H         20.4516154128       20.5825530879       23.2647832742
H         19.6095464781       20.2664340631       24.7842544743
C         18.9281873370       19.0431972730       23.1349654340
H         18.4608053835       18.3231465750       23.8196896754
H         18.1400278403       19.7594984856       22.8677733324
C         19.3907355101       18.2919275471       21.8576055391
H         18.5202331538       17.7451338843       21.4693614772
H         20.1302630717       17.5197423996       22.1078291974
C         19.9244844104       19.1993320257       20.7187393439
H         19.7634913404       18.6803821878       19.7633024651
H         19.3347143566       20.1248296260       20.6615126526
C         21.4313605058       19.5310416951       20.8264614851
H         22.0340000482       18.6162463123       20.8947995013
H         21.7637524501       20.0794523047       19.9355249588
H         21.6573588846       20.1587412797       21.6944216818
    20
VM2 Rank=25     G=31.129            E=7.726             -TS=23.403              
N         18.8233588379       19.0126273060       24.0373000697
H         18.5483425520       18.5961404624       23.1433949635
H         18.3501280651       18.4848859027       24.7783584678
H         18.4414852749       19.9632620745       24.0587514296
C         20.3288458096       19.0088540706       24.2170276328
H         20.6685850377       17.9715840370       24.2795336690
H         20.5374217830       19.4912160181       25.1758421243
C         21.1035511048       19.7444438313       23.1034630103
H         20.6088592925       20.6931385949       22.8593744577
H         22.0857412545       20.0200546109       23.5097372399
C         21.3441001642       18.8990573829       21.8237742625
H         21.9217683731       18.0042837920       22.0940949558
H         21.9870047690       19.4735090210       21.1426277123
C         20.0767605742       18.4563146128       21.0498425331
H         20.3927408754       17.8677874823       20.1770122210
H         19.4753240935       17.7721670144       21.6612890315
C         19.2113835093       19.6387027966       20.5565924915
H         18.3655185229       19.2739135049       19.9595433087
H         18.8020401892       20.2227758187       21.3891408383
H         19.7988558413       20.3162000074       19.9233952216
    20
VM2 Rank=26     G=31.197            E=7.794             -TS=23.403              
N         19.2040064412       18.1920583939       24.0382843691
H         19.6831048705       17.2865709953       24.0617703707
H         18.4948694182       18.1729823786       24.7788169423
H         18.7091197007       18.2494604256       23.1438853062
C         20.1733370379       19.3441798552       24.2166706954
H         20.6755103158       19.1936496631       25.1761837977
H         19.6008211879       20.2736142086       24.2769780663
C         21.2362109170       19.4584555995       23.1037786787
H         22.0806205979       20.0311145550       23.5096738478
H         21.6412417924       18.4676074649       22.8619296343
C         20.7472183569       20.1856396320       21.8222796878
H         21.6016071437       20.3042532513       21.1416681270
H         20.4368521632       21.2050405811       22.0903991592
C         19.5914371137       19.5024552536       21.0486049217
H         18.6801301631       19.4862312511       21.6592644978
H         19.3469265805       20.1221138238       20.1743742877
C         19.9357901332       18.0772112659       20.5583816472
H         20.1166601885       17.3890813138       21.3924091446
H         19.1115385571       17.6658093032       19.9614028303
H         20.8330059772       18.0870192044       19.9259460059
    20
VM2 Rank=27     G=33.060            E=9.672             -TS=23.388              
N         20.3762125904       17.8730306945       24.0430952587
H         20.3868051965       17.4940882592       23.0912474751
H         21.1249349578       17.4070517768       24.5665104996
H         19.4905289346       17.5900238454       24.4742289155
C         20.5441401413       19.3801317714       24.0402312220
H         21.5287046645       19.6225774352       23.6315082600
H         20.5204191032       19.7061538837       25.0836243396
C         19.4507989276       20.1309481292       23.2532804195
H         18.4687298140       19.6886599143       23.4671278326
H         19.4063062078       21.1574255274       23.6408057441
C         19.6783539658       20.2134941870       21.7198968972
H         20.5976377729       20.7767764925       21.5075404107
H         18.8616128418       20.8161983868       21.2989368296
C         19.7037606274       18.8539782742       20.9758596839
H         19.0786562889       18.1177993305       21.4988768486
H         19.2395749514       18.9868155893       19.9883651955
C         21.1347337476       18.3084169437       20.7556365187
H         21.1029654929       17.3211124150       20.2766775868
H         21.7052828905       18.9764003007       20.0971580827
H         21.6958936939       18.2128683138       21.6913527633
    20
VM2 Rank=28     G=33.073            E=9.684             -TS=23.388              
N         19.3357724072       20.1128481375       24.0402754114
H         19.4621186343       20.9865852666       24.5621029495
H         19.0540589620       20.3635041801       23.0876290739
H         18.5477409144       19.6194731041       24.4715440963
C         20.5957234692       19.2689963054       24.0404166366
H         20.8284260696       19.0426237386       25.0845075915
H         21.4165237501       19.8641404588       23.6314029914
C         20.4650338542       17.9476614055       23.2559352045
H         21.2204246718       17.2523748063       23.6455158007
H         19.4934334581       17.4828468925       23.4698237631
C         20.6762729049       18.0652833740       21.7225038079
H         20.6104112746       17.0515716550       21.3034859554
H         21.6998592949       18.4040275504       21.5104017386
C         19.6544364395       18.9601310737       20.9757654480
H         19.4574100142       18.5177643963       19.9889768944
H         18.6882024439       18.9583490039       21.4979245486
C         20.1607609250       20.4050797040       20.7531034916
H         21.0397015755       20.4088931408       20.0952507020
H         19.3861798546       21.0167373623       20.2723955185
H         20.4490606933       20.8973328212       21.6880721390
