   142
FE Rank=1      G=558.976           E=374.527           -TS=184.449              
C         16.0380211444       15.0588274151       20.9532259543
H         14.9596167916       14.9098054452       20.8192461572
O         16.3547491941       16.4259985625       21.2872521830
C         16.5919402154       14.1300360577       22.0636395114
H         16.4475678653       13.0957519532       21.7249061166
O         15.8934518897       14.3110913932       23.3040773242
H         15.8647271900       15.2834191198       23.4921276242
C         18.1114695896       14.3593104440       22.2455554159
H         18.2640978202       15.3825596855       22.6118422906
O         18.6261126592       13.4234643059       23.1981275308
H         17.9718639123       13.4225526843       23.9323133984
C         18.8614087841       14.2057963998       20.8987802663
H         18.9193477683       13.1356813359       20.6602847798
C         18.1687303030       14.9715634512       19.7336414982
H         18.3420691492       16.0455353388       19.8767196900
O         16.7387603145       14.7235579394       19.7369878781
C         18.7249760132       14.5981043549       18.3387392639
H         19.7399987624       15.0070207428       18.2470755816
H         18.1070491223       15.0857065758       17.5729697337
O         18.7517848306       13.1803399745       18.1290491225
H         19.0713194705       13.0210407454       17.2142387425
C         14.9397121227       20.2266963012       22.0355164954
H         14.3407417067       21.1230986959       22.2410253061
O         16.3170406298       20.5733866685       21.7788330887
C         14.8608217290       19.2641690791       23.2464760040
H         13.8050933022       18.9977634318       23.3851909743
O         15.3521876994       19.8912553019       24.4396546196
H         16.3201728657       20.0380223110       24.2972134941
C         15.6551162229       17.9707908959       22.9766272646
H         16.7091999762       18.2529073456       22.9196861439
O         15.4556947672       17.0591405014       24.0600090969
H         15.5783981153       17.6007676304       24.8717659823
C         15.2654304944       17.3073058945       21.6336571843
H         14.3163898305       16.7719536281       21.7640700404
C         15.1565654339       18.3363386705       20.4744798599
H         16.1796531737       18.6218513028       20.2103490735
O         14.4290346967       19.5268170765       20.8782132487
C         14.4972147626       17.7631705945       19.1960026569
H         15.1478148009       16.9806909792       18.7819497581
H         14.4387941582       18.5625471775       18.4455895968
O         13.1884481107       17.2339690262       19.4440577502
H         13.2868500616       16.3793368159       19.9119750989
C         18.5488946092       23.9422196383       20.6420655265
H         18.8742080443       24.8782808158       20.1701129237
O         19.6201899533       23.3213856582       21.3791815000
C         17.4082020732       24.2183078293       21.6529951422
H         16.6003352643       24.7214544852       21.1059218269
O         17.8787482356       25.0774892826       22.7047038018
H         18.7924688745       24.7742506192       22.9270696135
C         16.8349126587       22.9055455796       22.2506095884
H         17.5897424343       22.4731733192       22.9209488781
O         15.6521080184       23.2254466451       22.9893808835
H         15.9101456875       23.9618844785       23.5858316163
C         16.5158504832       21.8583966140       21.1490229978
H         15.6194333968       22.1834322396       20.6047600795
C         17.6873155724       21.7104307631       20.1426653078
H         18.5389354161       21.2704396955       20.6705151563
O         18.0535714805       23.0185047870       19.6502772774
C         17.3862447974       20.8011530523       18.9250483810
H         17.6258054145       19.7663724985       19.1980724390
H         18.0667557480       21.0737645400       18.1074974290
O         16.0261241319       20.8905294465       18.4806938596
H         15.4521110232       20.5777117199       19.2166873262
C         23.7328661761       22.8478501435       21.3597165178
H         24.8203632996       22.9488046929       21.2503814427
O         23.3575816968       21.5163844092       21.7650830016
C         23.1972669248       23.8390893983       22.4216979825
H         23.4549080832       24.8524316963       22.0873704306
O         23.8050617893       23.5893487168       23.7001600339
H         23.7881962363       22.6099803436       23.8480768609
C         21.6557074165       23.7485455911       22.5339832670
H         21.4127988340       22.7800047383       22.9832043911
O         21.1730673395       24.7971755295       23.3813103038
H         21.7590217955       24.7806390860       24.1701041533
C         20.9527843773       23.8269858737       21.1540367935
H         20.9409059024       24.8786507888       20.8393834325
C         21.6477930011       22.9509568247       20.0688345643
H         21.4249055558       21.8979000082       20.2816647296
O         23.0811941485       23.1494551128       20.1109316791
C         21.1892007970       23.2428917317       18.6189221832
H         20.1994082084       22.7989438275       18.4620239043
H         21.8768662184       22.7361901384       17.9286529711
O         21.1482334020       24.6468958047       18.3329475694
H         20.8931289325       24.7509004140       17.3904864824
C         24.8938646978       17.6924604384       22.1659398076
H         25.5244233489       16.8031076592       22.2952804971
O         23.5275314340       17.3333288427       21.8832897669
C         24.9182695653       18.5412327110       23.4599874526
H         25.9564123013       18.8514263307       23.6364788309
O         24.4553458528       17.7631953296       24.5754921429
H         23.9722700936       16.9877543303       24.1991324611
C         24.0565025014       19.8126824567       23.2931654624
H         23.0140388014       19.4897082386       23.2032269562
O         24.2032460890       20.6539553494       24.4421872189
H         24.1178449510       20.0473808282       25.2111716544
C         24.4408693746       20.5980730874       22.0155502076
H         25.3876412171       21.1203012527       22.2071218131
C         24.5800533509       19.6822847848       20.7661575031
H         23.5705049979       19.3699221611       20.4741674157
O         25.3729570396       18.5058928283       21.0750355519
C         25.2177123955       20.3858047367       19.5440831000
H         24.4973649058       21.1095705820       19.1405926457
H         25.3968523423       19.6365337068       18.7612380577
O         26.4396528845       21.0528808757       19.8839192575
H         26.8174086978       21.4220230888       19.0560590965
C         21.2970586205       14.0222835824       20.6307827139
H         20.9901280122       13.0663636677       20.1874082797
O         20.1658403467       14.7879811860       21.0907464487
C         22.2242429784       13.7881105961       21.8527598097
H         23.1051706308       13.2381222852       21.4970845378
O         21.5611451743       13.0108897470       22.8628057218
H         20.6299782545       13.3433169861       22.9296515927
C         22.7091332672       15.1382654845       22.4384126478
H         21.8388356774       15.6692209628       22.8470995748
O         23.6631969773       14.9005642877       23.4787239421
H         23.2775789248       14.1725686386       24.0157791721
C         23.3380097722       16.0180997054       21.3309281298
H         24.2873416283       15.5635264381       21.0178831133
C         22.4079355050       16.1414697152       20.0939390999
H         21.5125927577       16.6985673466       20.3883693057
O         22.0232544564       14.8136308528       19.6622332707
C         23.0292398860       16.8953115447       18.8891977411
H         22.7977923421       17.9626332097       18.9908093895
H         22.5352209824       16.5525709042       17.9702724920
O         24.4473471405       16.7194831171       18.7787916233
H         24.8635605053       17.2225723076       19.5173290814
C         20.3985743579       19.3348078437       21.7271498895
H         20.2515764715       19.8784891659       20.7868630249
H         21.4144895513       18.9237438260       21.7206700452
C         19.3917622245       18.1952016186       21.9112555838
H         18.3993730880       18.5315488984       21.5873782641
H         19.6523633464       17.3010911795       21.3396605187
C         19.4052180733       17.9457903116       23.4290119685
H         20.2716876330       17.3238189779       23.6868476909
H         18.5099870453       17.4256565608       23.7885402639
C         19.5794397195       19.3331625163       24.0696445529
H         20.2528269632       19.2599551763       24.9356450008
C         20.2006634457       20.2231095217       22.9733074623
H         19.5301595319       21.0567523536       22.7368456237
H         21.1511297336       20.6465391299       23.3122116267
O         18.3151667789       19.8612208396       24.4615146954
H         18.5049878188       20.7192501763       24.8909349947
