   145
FE Rank=1      G=503.736           E=316.547           -TS=187.189              
C         16.4324574784       15.3436261205       22.0665747581
H         15.3904453101       15.2832913697       22.4065248340
O         16.7440599326       16.6455737720       21.5376149651
C         17.3943082816       15.0458446157       23.2405612445
H         17.1866007111       14.0226365254       23.5797706948
O         17.1860630923       15.9536837682       24.3346951409
H         16.4691078317       16.5777422541       24.0621742345
C         18.8651205921       15.1054882911       22.7713036201
H         19.0891725068       16.1360157454       22.4770729913
O         19.6955089604       14.7292024254       23.8709182167
H         19.3253152830       15.2277630336       24.6349815267
C         19.1144985138       14.2022126173       21.5342019128
H         19.1541467818       13.1543152643       21.8575141009
C         18.0152978170       14.3916794740       20.4470162747
H         18.1779066577       15.3700866762       19.9767879857
O         16.6871498616       14.3687730511       21.0330790660
C         18.0708844474       13.3333802244       19.3189022479
H         19.0090843254       13.4604300075       18.7616205266
H         17.2498534218       13.5325599425       18.6174057299
O         17.9718094874       11.9923680168       19.8167301626
H         18.7940806963       11.7837434878       20.3055505360
C         14.8391020346       20.3216811597       20.9177273844
H         14.0976515559       21.0930406825       20.6746014016
O         16.1351532275       20.8899673468       21.1780713832
C         14.4095443561       19.5601279319       22.1972547009
H         13.4298812259       19.1068193713       21.9977006326
O         14.2936850667       20.4652138779       23.3066412947
H         15.0039541046       21.1457147433       23.1971262345
C         15.4042072913       18.4201928920       22.5293984395
H         16.3669008024       18.8720315706       22.8078821968
O         14.8866002410       17.6558876223       23.6231397855
H         14.5634608420       18.3268021085       24.2665823980
C         15.6250606297       17.5156642112       21.2897592694
H         14.7073932008       16.9462816718       21.0922666173
C         15.9777913284       18.3517337211       20.0327044731
H         16.9461400929       18.8340706349       20.2080668520
O         14.9665330171       19.3716706074       19.8358367494
C         16.1183391920       17.5110647458       18.7382343881
H         17.1290473092       17.0845337861       18.7148208548
H         16.0319885119       18.1797866776       17.8717300261
O         15.1549684103       16.4541038122       18.6486950905
H         15.4020761885       15.7799937747       19.3202629752
C         18.5589682616       24.1859110885       20.5784604314
H         19.0119183368       25.1454806748       20.3006039718
O         19.5520584918       23.2491202402       21.0470133599
C         17.4500159719       24.3760345599       21.6477668332
H         16.6602019890       24.9805616603       21.1830230693
O         17.9312436622       25.0716975292       22.8067812920
H         18.5851093010       24.4741486350       23.2491811504
C         16.8312489772       23.0081811874       22.0284513827
H         17.6025647100       22.3986589611       22.5207313149
O         15.7280434995       23.2093923607       22.9189967012
H         16.0610001025       23.8245609476       23.6088255007
C         16.3467429282       22.2515913292       20.7660355765
H         15.4217489603       22.7274747573       20.4162803806
C         17.4006355194       22.2509528887       19.6208884296
H         18.2248361185       21.5886922164       19.9118453888
O         17.9211367384       23.5915670727       19.4270351627
C         16.8663572183       21.7282911467       18.2641250422
H         16.8035872302       20.6338098985       18.3088609210
H         17.5995811921       21.9755840323       17.4850133013
O         15.5846759271       22.2686959452       17.9224236493
H         14.9070682710       21.6834065190       18.3241858413
C         23.2551486586       22.5540832911       22.6376503587
H         24.2538753265       22.5610559273       23.0926586631
O         22.9333368257       21.2534452945       22.0969692497
C         22.1957588083       22.9608838444       23.6910087140
H         22.3865800583       24.0091023725       23.9540534226
O         22.3171984694       22.1661300734       24.8801327987
H         21.8268574143       21.3143351699       24.7260807181
C         20.7838784531       22.8785106990       23.0643577372
H         20.6135918945       21.8423421277       22.7596017071
O         19.7778849000       23.2573532701       24.0093329140
H         19.4328674859       22.3947931439       24.3685984011
C         20.6871805433       23.7484573696       21.7850989798
H         20.5716933282       24.8009112176       22.0727889342
C         21.9127556105       23.5662661555       20.8414488225
H         21.7710608624       22.6079553846       20.3331877359
O         23.1718807464       23.5195177584       21.5658709134
C         22.0177225008       24.6509758106       19.7423571870
H         21.1496685386       24.5643759775       19.0748963040
H         22.9103203701       24.4461027103       19.1363227323
O         22.0922103303       25.9757631244       20.2852477596
H         21.2260902748       26.1961069780       20.6860240948
C         24.8550425265       17.7149241613       20.9419790998
H         25.5789989240       16.9973286147       20.5350185012
O         23.6142258596       17.0750087976       21.2977247773
C         25.4204693214       18.3833329616       22.2195943858
H         26.3712290094       18.8568312676       21.9422292109
O         25.6659973237       17.3997694484       23.2390022223
H         24.9029526303       16.7685942982       23.2277665179
C         24.4790207783       19.4950642349       22.7527162764
H         23.5734044855       19.0222950098       23.1590618059
O         25.1695400484       20.2078282270       23.7839271194
H         25.4864790452       19.5179457540       24.4068415296
C         24.0496181519       20.4712582313       21.6240253375
H         24.9063033200       21.1078315570       21.3674539999
C         23.5800086663       19.7156722046       20.3497313096
H         22.6416436808       19.1947697860       20.5790197807
O         24.5868212507       18.7490664611       19.9734510812
C         23.3162339484       20.6266548830       19.1234951988
H         22.2783057966       20.9731565811       19.1653929342
H         23.4052970284       20.0211023640       18.2116633656
O         24.2009608434       21.7533573842       19.0551419176
H         24.0261178010       22.3149599166       19.8440424370
C         21.3968681743       13.6568428265       20.7146112569
H         20.9813203497       12.6679172862       20.4858711887
O         20.3527085220       14.6348754540       20.9290568686
C         22.3534719369       13.5965131358       21.9340466684
H         23.2194435312       12.9937440994       21.6301173618
O         21.7475715277       12.9689898380       23.0717233991
H         21.0146477723       13.5633893124       23.3689937104
C         22.8670233380       15.0182422461       22.2674794630
H         22.0116132288       15.6396534280       22.5670702584
O         23.8177483479       14.9528551586       23.3363989743
H         23.4140910084       14.3564606901       24.0052309085
C         23.5306926481       15.6619037267       21.0240904785
H         24.5240086036       15.2091150081       20.9070268963
C         22.7090239113       15.4709670547       19.7132104859
H         21.8576379578       16.1587389616       19.7422593963
O         22.2025188039       14.1147249026       19.6092895473
C         23.5097127950       15.7890376403       18.4276798625
H         23.6634224028       16.8746376407       18.3710390051
H         22.9026011550       15.5024529667       17.5585304779
O         24.7744949753       15.1151486775       18.3961104071
H         25.1990848872       15.3200430963       17.5346929997
C         19.6738288009       19.8112993950       24.0705208526
O         20.7281251685       19.8971682945       24.6679887335
O         18.7629411821       20.6053985346       24.2105161106
C         19.5783072184       18.7751832422       22.9571900115
H         18.6460895475       18.2204598415       23.1033572155
H         20.4071615969       18.0681546700       23.0851626860
C         19.6184480028       19.3895380093       21.5359444704
H         18.7019020626       19.9692959624       21.3777959945
H         20.4584073457       20.0907505865       21.4644137495
C         19.7779042483       18.3147482219       20.4417516712
H         18.9993303543       17.5516934700       20.5492451823
H         20.7377486163       17.8073407873       20.5900808297
C         19.7155096457       18.9182756434       19.0234551459
H         18.7163866460       19.3303744710       18.8421789472
H         20.4172980046       19.7561653572       18.9415821554
C         20.0420496327       17.8730738780       17.9394375434
H         19.3958730287       16.9909100155       18.0291204566
H         19.9013131938       18.2991528031       16.9378650567
H         21.0844116731       17.5434775078       18.0193091129
