   143
FE Rank=1      G=504.494           E=321.659           -TS=182.834              
C         16.0994311344       15.1099643528       21.6086931452
H         15.0188282042       14.9180804689       21.6217562033
O         16.3678776577       16.5228761839       21.6781658826
C         16.7595384173       14.3825565828       22.8088661645
H         16.4778544677       13.3251107166       22.7231211261
O         16.2740126664       14.8947626245       24.0587623769
H         16.6016273242       15.8342402496       24.1267146912
C         18.3037516350       14.4598816126       22.7946463640
H         18.5884577982       15.4707916606       23.1042323739
O         18.8005342464       13.5050726412       23.7395551771
H         18.2205831155       13.6075911725       24.5286851861
C         18.9212523672       14.2024170703       21.3948634495
H         18.9700960798       13.1215168044       21.2121429662
C         18.1142344469       14.8754278622       20.2549021161
H         18.2808592732       15.9536800655       20.3399569375
O         16.6962446041       14.6054140165       20.3944478615
C         18.5732680536       14.4549689626       18.8363352568
H         19.5582314006       14.9009077186       18.6415187947
H         17.8762854725       14.8785114876       18.1014012263
O         18.6453669363       13.0331565860       18.6778174146
H         19.4466002809       12.7230707426       19.1515572718
C         14.7136980554       20.2437215121       20.8120775556
H         14.0835245120       21.0684321927       20.4563222968
O         15.9193906926       20.7310893729       21.4294801447
C         13.9402916325       19.4188488672       21.8670265036
H         13.0134343403       19.0690839494       21.3941937787
O         13.6174812862       20.2479713020       22.9946714878
H         14.4320273704       20.7716766683       23.1940546294
C         14.7399313297       18.1751769585       22.3267397353
H         15.5667054857       18.5215544118       22.9581253648
O         13.8681186679       17.3284349040       23.0831840982
H         13.5138161240       17.8956916428       23.8015152695
C         15.3394929961       17.3806570199       21.1360648612
H         14.5298009019       16.8059531185       20.6681473697
C         15.9898824303       18.3026182731       20.0655793742
H         16.9025403706       18.7336912218       20.4976381958
O         15.0671423935       19.3662737897       19.7253201784
C         16.3920704611       17.5939483599       18.7448541920
H         17.4215681742       17.2327390686       18.8369695807
H         16.3964552132       18.3375334682       17.9370686742
O         15.5288608134       16.5054645029       18.3961710194
H         15.7467744876       15.7577384664       19.0007462137
C         18.5692697864       23.9693928833       21.1350732973
H         18.9966254137       24.9596829340       20.9326449687
O         19.5867853753       23.0254818543       21.5136571023
C         17.5113464795       24.0483212948       22.2683264942
H         16.7558776381       24.7781528673       21.9497041059
O         18.1015592469       24.4953865971       23.4999578039
H         18.8640940012       23.8935120296       23.6962171821
C         16.7934637297       22.6905102210       22.4780955129
H         17.5079769638       21.9851150261       22.9246912386
O         15.6820454547       22.8818565588       23.3620270135
H         16.0537204304       23.3369610975       24.1488820727
C         16.2922583174       22.0928256169       21.1387318587
H         15.4320405708       22.6868487222       20.8035424930
C         17.4005803185       22.1148094443       20.0466503523
H         18.2010841418       21.4297462543       20.3521630262
O         17.9250942245       23.4609780187       19.9491095523
C         16.9567339987       21.6829640136       18.6267915706
H         17.0074886832       20.5898117880       18.5611653076
H         17.6839814470       22.0743613102       17.9030104654
O         15.6392884217       22.1287651764       18.2865799158
H         15.0346628948       21.3743286885       18.4606406054
C         23.6401940549       22.6624916710       22.1094821369
H         24.7120362651       22.7733455057       22.3187229542
O         23.3340546525       21.3703938994       21.5523982304
C         22.8193084067       22.8469752528       23.4095636758
H         22.9882349306       23.8729737001       23.7616022680
O         23.2440188995       21.9246725526       24.4259249683
H         23.8329027665       21.2614382630       23.9887510638
C         21.3085013480       22.6822879229       23.1264831448
H         21.1277399735       21.6325704063       22.8595691552
O         20.5643083966       23.0178027615       24.3026235852
H         20.9942197864       22.5082072422       25.0250534041
C         20.8457876016       23.5742773378       21.9475405053
H         20.7389744232       24.6034071408       22.3156704218
C         21.8173535398       23.5396591075       20.7299241027
H         21.6853194951       22.5751803923       20.2239479813
O         23.1961607848       23.6601114072       21.1677470769
C         21.5455114726       24.6416598684       19.6779658587
H         20.6157275574       24.3966097915       19.1470744263
H         22.3560032400       24.6247115894       18.9369962271
O         21.4402633307       25.9421167303       20.2708519210
H         21.3570967507       26.5958874504       19.5426614625
C         25.0025404351       17.7682229197       20.4227108471
H         25.6229567896       16.9518316784       20.0337796921
O         23.6550610077       17.3158400841       20.6991627658
C         25.6489499899       18.4073726235       21.6829966090
H         26.6015323868       18.8480509748       21.3608058089
O         25.9217782146       17.4414497936       22.7074822003
H         25.0433511479       17.1578020457       23.0652967811
C         24.7602844358       19.5546782899       22.2215202855
H         23.8077989189       19.1256190668       22.5610859812
O         25.4196344255       20.2008618458       23.3151932715
H         25.8027046036       19.4715852810       23.8526193902
C         24.4507534666       20.5833078378       21.1051005250
H         25.3423344345       21.1975239147       20.9255448434
C         24.0148217675       19.9100092518       19.7745250278
H         23.0097833947       19.5037632400       19.9202147540
O         24.9139037573       18.8227887858       19.4397624138
C         23.9267952232       20.8841569524       18.5733653993
H         22.9984257827       21.4629886042       18.6624860343
H         23.8484799447       20.2924343800       17.6516320554
O         25.0439921154       21.7774710720       18.4929055373
H         24.9151806874       22.4689867859       19.1780534690
C         21.3322212832       14.0408173106       21.8811175739
H         20.9979139072       13.0564036571       22.2329795165
O         20.2331466963       14.8101908379       21.3516468729
C         22.0352552710       14.8176841940       23.0289538652
H         22.8940482811       14.2084429365       23.3398720294
O         21.1862585727       15.0254456388       24.1672201318
H         20.4196761994       14.4105732259       24.0798199077
C         22.5762390702       16.1775343503       22.5374774190
H         21.7186979609       16.8086080703       22.2691107379
O         23.3068835510       16.7755858613       23.6112736207
H         22.7164508151       16.6667502546       24.3917537397
C         23.4730633730       16.0072960504       21.2843078425
H         24.4256848785       15.5564783677       21.5891518145
C         22.7871451043       15.1118739336       20.2137723031
H         21.9389536703       15.6715927889       19.7967182940
O         22.2995061549       13.8854784661       20.8198956250
C         23.7159708035       14.7362860785       19.0336029217
H         23.9679359231       15.6502193709       18.4786371237
H         23.1571466888       14.0865115398       18.3471440416
O         24.9140345164       14.0752042739       19.4632769029
H         25.4436190356       14.7071151988       19.9908659724
C         18.0313951154       18.4390170070       23.8720844252
O         17.6120604652       19.5210843700       24.2387237008
O         17.6737623802       17.3845704596       24.3657695206
C         18.9966806604       18.3785933765       22.7382259172
H         19.3466887660       17.3899240629       22.4604774827
C         19.4341441110       19.4636245487       22.0610402107
H         19.0904366842       20.4590797685       22.3333024326
C         20.4160651981       19.3997683523       20.9112813465
H         21.3103212146       18.8501934265       21.2290302897
H         20.7441198455       20.4140825336       20.6524746917
C         19.7999609550       18.7245901061       19.6695981240
H         19.4880570505       17.7085660680       19.9330182051
H         18.9013488180       19.2741199761       19.3651181119
C         20.7787080855       18.6546928182       18.4822023867
H         21.6631390206       18.0570275796       18.7372011334
H         20.2972322170       18.1875983243       17.6136773361
H         21.1087784934       19.6583192575       18.1865019398
