   155
FE Rank=1      G=586.405           E=378.843           -TS=207.563              
C         16.3012317672       15.2314906117       21.7541626845
H         15.2277810202       15.1551021168       21.9706226629
O         16.6593876350       16.5476624529       21.2857013481
C         17.1241316259       14.9102987054       23.0247535362
H         16.9053667880       13.8701080826       23.2994960126
O         16.7669302841       15.7709277451       24.1196163801
H         16.0090323032       16.3298375841       23.8176958108
C         18.6361939017       15.0217770358       22.7293069923
H         18.8616170524       16.0689430280       22.5070632733
O         19.3624628818       14.6176184822       23.8920681404
H         18.8416192556       14.9848036542       24.6416353998
C         19.0500788838       14.1857229225       21.4918036117
H         19.1258453947       13.1305435696       21.7862682773
C         18.0632326135       14.3452267180       20.2971475340
H         18.2408780090       15.3304236523       19.8471629182
O         16.6828149580       14.2784129219       20.7406804770
C         18.2742046341       13.2933424356       19.1822729541
H         19.2233497698       13.5107365276       18.6737766305
H         17.4729694633       13.4041157251       18.4393213037
O         18.2950675629       11.9564853527       19.6980024943
H         18.3543436958       11.3428670112       18.9333425474
C         14.9258687240       20.2563645210       20.5435585486
H         14.2758975550       21.0838217484       20.2312862682
O         16.2431042464       20.7283355243       20.9023836999
C         14.3060169017       19.4740201289       21.7349522188
H         13.3566125668       19.0514164623       21.3809812943
O         14.0393964527       20.3220312633       22.8617365793
H         14.9109745261       20.6753382038       23.1724189249
C         15.2231247439       18.2973593238       22.1478987177
H         16.1590491205       18.7179107686       22.5365998597
O         14.5773264159       17.5247471066       23.1654930125
H         14.1639919387       18.1870685915       23.7644621851
C         15.5613062689       17.4055506285       20.9253371036
H         14.6689413279       16.8285751297       20.6501184964
C         16.0217305997       18.2374011725       19.6969565628
H         17.0046837343       18.6666444006       19.9178153247
O         15.0820916967       19.3145126989       19.4574126361
C         16.1882757691       17.4059390498       18.3997927310
H         17.1579244646       16.8926963352       18.4392057740
H         16.2241892508       18.0948576116       17.5453975579
O         15.1453987680       16.4416617963       18.2129445868
H         15.3022287048       15.7137313816       18.8538698369
C         18.4773641612       24.0393996439       21.9234949655
H         18.8765826949       25.0149028510       22.2299131432
O         19.5021694209       23.1926794826       21.3640030438
C         17.8242925073       23.3189789498       23.1306655831
H         16.9827249958       23.9397700670       23.4649214675
O         18.7465105104       23.1501656580       24.2192931826
H         19.6019867119       23.5646792551       23.9483722194
C         17.2673853247       21.9449799772       22.7014768894
H         18.1258347189       21.3173419247       22.4380697898
O         16.5658931566       21.3618438626       23.8034249269
H         17.1376234404       21.5483800678       24.5824593724
C         16.3404330287       22.0548586016       21.4625296043
H         15.3643637226       22.4374587919       21.7888724446
C         16.9254555929       22.9751861602       20.3511146566
H         17.7422829163       22.4312747322       19.8591244110
O         17.4522722273       24.2023214660       20.9210669697
C         15.9013670891       23.3451372758       19.2515739283
H         15.7005290061       22.4501737796       18.6472660546
H         16.3560232030       24.0918699354       18.5868217479
O         14.6756612736       23.8461990113       19.7993973820
H         14.1112332865       24.1377273252       19.0503114241
C         23.5778259093       22.8359952976       20.8785330643
H         24.6479550002       22.9468453271       20.6614733730
O         23.2220836766       21.4486672461       21.0716089210
C         23.1663835029       23.6759509245       22.1181602802
H         23.3417385686       24.7288705422       21.8612698270
O         23.9450590749       23.3525876530       23.2791739921
H         23.7220616393       22.4185778466       23.5213139363
C         21.6565238079       23.5070834070       22.4136019916
H         21.4828191536       22.4658019820       22.7191878048
O         21.2863004386       24.3934913818       23.4743913759
H         22.0296344918       24.3459264292       24.1178334569
C         20.7950471391       23.7921334876       21.1543823000
H         20.7233012902       24.8766211261       21.0027389165
C         21.3654121795       23.1330178330       19.8686050780
H         21.1647644756       22.0608672235       19.9343370601
O         22.7971259547       23.3371947693       19.7721300616
C         20.6969728363       23.6237148205       18.5609398180
H         19.6812055371       23.2095607440       18.5101420465
H         21.2566426520       23.2125754192       17.7102867265
O         20.6420144521       25.0520185737       18.4671087942
H         19.9202762586       25.3608730490       19.0555982325
C         24.7201362963       17.7041655644       22.0832869712
H         25.3385994587       16.8660571138       22.4291602854
O         23.5508849809       17.2413511875       21.3770082029
C         24.2799056965       18.5777048660       23.2877070008
H         25.1945221760       18.9348021558       23.7788250751
O         23.4961834985       17.8291636408       24.2321708109
H         23.6803056332       16.8722773217       24.0709031148
C         23.4739374678       19.8070949878       22.8149564706
H         22.5287236047       19.4361610364       22.4078844414
O         23.2141820048       20.6494255712       23.9410514945
H         22.9383775940       20.0275896956       24.6519874521
C         24.2034064925       20.5918212102       21.6947525917
H         25.0280130529       21.1634425448       22.1406781161
C         24.7529821221       19.6491941801       20.5876194356
H         23.8993499772       19.2565023927       20.0203269793
O         25.4763812912       18.5419140702       21.1829962276
C         25.6846213831       20.3603692212       19.5773139813
H         25.0748204272       21.0245376826       18.9498690042
H         26.1278787020       19.6033110540       18.9165900779
O         26.7123626707       21.1173412921       20.2287660130
H         27.3095360086       21.4699740355       19.5334291730
C         21.3735201802       13.7774677165       20.7867848701
H         20.9811152486       12.7843294932       20.5325321331
O         20.3117336118       14.7205289216       21.0439099351
C         22.3169101003       13.7161771942       22.0157643671
H         23.1825521229       13.1065450516       21.7251346718
O         21.6867078976       13.1046894682       23.1504966406
H         20.8963077806       13.6561408213       23.3792443847
C         22.8335015748       15.1326515178       22.3696032556
H         21.9775669227       15.7383132771       22.6985959454
O         23.7877668142       15.0228065745       23.4316754400
H         23.4177805761       14.3377545794       24.0342446508
C         23.4718301674       15.8219826071       21.1302994101
H         24.4663245382       15.3915894543       20.9575912084
C         22.6207875763       15.6576783393       19.8385008586
H         21.7455767780       16.3136275890       19.9176289964
O         22.1632897653       14.2905059977       19.6939801744
C         23.3783590701       16.0660770527       18.5509963709
H         23.5436474534       17.1508230154       18.5707527188
H         22.7370658060       15.8491597647       17.6864501388
O         24.6356787384       15.3933947379       18.4107001186
H         25.2651865206       15.8026088945       19.0418738501
C         22.1112162629       20.3321368855       15.7595095547
H         22.8082518064       19.4855329511       15.7089925247
H         21.7844763301       20.5611615743       14.7369075039
H         22.6585232589       21.2038097350       16.1417386362
C         20.9003928539       20.0007326342       16.6565212096
H         20.3528911979       19.1468609084       16.2335324432
H         20.2065168496       20.8527773366       16.6600716032
C         21.3382531684       19.6764609640       18.1000569843
H         22.0159175394       18.8140399334       18.0904419421
H         21.9142441037       20.5193255408       18.5036531907
C         20.1319267979       19.3705476765       19.0158827925
H         19.6246819702       18.4621723661       18.6629385574
H         19.4010732791       20.1890409590       18.9557269915
C         20.5697822527       19.1876312567       20.4838739364
H         21.3464088506       18.4177772888       20.5507715460
H         21.0165559304       20.1185936491       20.8471331430
C         19.3941489290       18.8134427804       21.4034977698
H         18.9870951702       17.8418923393       21.0963813412
H         18.5918063921       19.5484281303       21.2799559103
C         19.8210642521       18.7597366367       22.8857261576
H         20.5693936504       17.9665724736       23.0217172188
H         20.2951168423       19.7070784743       23.1763762038
C         18.6168051515       18.5038637787       23.8041214991
H         18.0574357564       17.6390074945       23.4424861068
H         17.9485301226       19.3681774646       23.7909231593
N         19.0119914987       18.2316067245       25.2384616391
H         19.6579367244       17.4382879432       25.3050315517
H         18.1931183071       18.0032763760       25.8128777546
H         19.4737636829       19.0405057081       25.6662117653
