   146
FE Rank=1      G=563.689           E=368.388           -TS=195.301              
C         16.0457099308       15.0458462451       20.3717906949
H         15.0107931145       14.8436501068       20.0676000490
O         16.2502114248       16.4482174523       20.6526794732
C         16.4642357263       14.1697698808       21.5818548262
H         16.4747022502       13.1296426598       21.2301695107
O         15.5424220324       14.2618584948       22.6769268102
H         15.6363915252       15.1721260026       23.0530539720
C         17.9038778419       14.5289972282       22.0239319624
H         17.9130721974       15.5733459110       22.3602579906
O         18.2780583684       13.6714384308       23.1084272288
H         17.4608368059       13.5721691133       23.6480894831
C         18.8944074692       14.4026384942       20.8287402809
H         19.0873897070       13.3390259199       20.6402316740
C         18.3461764807       15.0591460924       19.5280872309
H         18.4111056767       16.1478355928       19.6478271510
O         16.9576069022       14.6951479352       19.3080882498
C         19.1631949497       14.6999328357       18.2623533699
H         20.1393511042       15.1997789727       18.3212917351
H         18.6427043277       15.1077489034       17.3856774963
O         19.3524572176       13.2881107952       18.1075006209
H         20.0217442471       13.0039689437       18.7663342570
C         14.9894313164       20.0656432781       21.9852028578
H         14.4878568601       20.9579494983       22.3804423795
O         16.2070886048       20.4034827606       21.2901927487
C         15.3268839811       19.0903618298       23.1381336875
H         14.3810485112       18.8369830809       23.6347453738
O         16.2286793368       19.6861909586       24.0884851871
H         16.1151257723       20.6659409587       24.0152554934
C         15.9644540605       17.7909016248       22.6062037210
H         16.9753972523       18.0430361255       22.2783726325
O         16.0434238464       16.8590416958       23.6877892929
H         16.2377813814       17.4020687542       24.4839162082
C         15.2372227069       17.1760637176       21.3791934726
H         14.4196922837       16.5294945095       21.7234244197
C         14.6993933819       18.2402618983       20.3782677642
H         15.5469546618       18.5950436514       19.7776971312
O         14.1182576315       19.3728348472       21.0694767710
C         13.6535424485       17.6744858971       19.3884527355
H         14.1613269256       16.9798895868       18.7057065666
H         13.2622130897       18.5017992712       18.7813064201
O         12.5825122073       16.9994799461       20.0598244486
H         11.9272084883       16.7293782164       19.3796841354
C         18.5355123438       23.8325086108       20.6783119147
H         18.8800292134       24.8383902307       20.4060030124
O         19.6517176741       22.9478697171       20.9201347280
C         17.5993200899       23.8792625221       21.9201641476
H         16.7298986129       24.4863678645       21.6357840056
O         18.2235637788       24.4901458788       23.0585211227
H         18.9622593858       23.8909047289       23.3338468262
C         17.0842928907       22.4628863427       22.2765768880
H         17.9424883286       21.8465027964       22.5765713022
O         16.1560169620       22.5676032020       23.3625971137
H         16.5480422039       23.2383270166       23.9668674121
C         16.4197790014       21.8057524573       21.0363182123
H         15.4725723142       22.3187789146       20.8251788483
C         17.3328579398       21.8961953924       19.7835805114
H         18.2114861221       21.2622160798       19.9518589101
O         17.7659292941       23.2664257690       19.5934432743
C         16.6595243091       21.3937620324       18.4818517165
H         16.6638852478       20.2958721561       18.4898808183
H         17.2703422056       21.7122759167       17.6266815599
O         15.3152432908       21.8660848694       18.3319633594
H         14.7644287888       21.3991774100       18.9973051150
C         23.6480687048       22.7648348032       21.9872657192
H         24.6767074483       22.9427120768       22.3263035396
O         23.5245165727       21.5044620664       21.2931107045
C         22.6566062146       22.8152660340       23.1820508923
H         22.7002802981       23.8311507853       23.5962381012
O         22.9764536625       21.8752922150       24.2188984579
H         23.8836987727       21.5308417926       24.0381756160
C         21.2187184973       22.5585594943       22.6912192913
H         21.1897933197       21.5367700166       22.2993454900
O         20.3209289954       22.6796846685       23.7980554908
H         20.7882135080       22.2281938435       24.5380147454
C         20.8213678114       23.5197776342       21.5450306545
H         20.6215720886       24.5119680350       21.9702112324
C         21.9287352265       23.6270030556       20.4559960146
H         21.9267236720       22.6942961248       19.8768397939
O         23.2357059310       23.8001893990       21.0680337509
C         21.6975503806       24.7840606471       19.4549157744
H         20.8445858183       24.5240651732       18.8135514854
H         22.5799138283       24.8674478756       18.8063126666
O         21.4453419652       26.0301862235       20.1161386551
H         21.3913526723       26.7279787232       19.4269640497
C         25.1472534962       17.7538105930       21.0118586346
H         25.7364472648       16.8405088376       20.8604302228
O         23.7345825011       17.4602326403       21.0910201358
C         25.6173937379       18.5168903769       22.2782410504
H         26.6626007722       18.8038170464       22.1029924812
O         25.5547580333       17.7056761448       23.4607015998
H         24.5949473530       17.5321096480       23.6335764022
C         24.8001122863       19.8136598712       22.4855098651
H         23.7807152616       19.5263081035       22.7781797767
O         25.4202779542       20.5668186550       23.5333867819
H         25.6829513539       19.8979130901       24.2065145111
C         24.7029327615       20.6756505970       21.1959831047
H         25.6132016301       21.2802598733       21.0981929622
C         24.5065650229       19.8363952571       19.9015223420
H         23.4593952406       19.5194223578       19.8673725903
O         25.3467646001       18.6565924768       19.9051292405
C         24.7685100793       20.6335463397       18.6001677058
H         23.9791604984       21.3889829469       18.4865461965
H         24.6827913162       19.9447531570       17.7493221870
O         26.0536213543       21.2673977714       18.5874229024
H         26.0052284623       22.0544588753       19.1708414963
C         21.0350027531       14.4171003808       22.0153118228
H         20.5992073952       13.4866948471       22.3986226244
O         20.1183577049       15.1050519500       21.1389269933
C         21.4096192584       15.3539396985       23.1968615814
H         22.0591718138       14.7778744299       23.8687023534
O         20.2387167758       15.7871824473       23.9179886809
H         19.6091992733       15.0263949389       23.9070290505
C         22.1963701848       16.5918956083       22.7115545998
H         21.4983052575       17.2202067417       22.1539797407
O         22.6915326711       17.3034243843       23.8500773313
H         21.9391541918       17.3194658336       24.4819599798
C         23.3535341286       16.2329783500       21.7494764583
H         24.1779633604       15.7964497314       22.3281284165
C         22.9002095683       15.2359743486       20.6503191118
H         22.2022603064       15.7547090286       19.9799898675
O         22.2281934270       14.1106302025       21.2640626338
C         24.0629946988       14.6969017520       19.7826650048
H         24.4160662727       15.5077273324       19.1312120935
H         23.6746010057       13.9019121118       19.1320501757
O         25.1496975996       14.2045847809       20.5770305896
H         25.8058878854       13.8015456881       19.9674672125
N         19.0508325382       18.6121094371       24.0135133638
H         18.0396651630       18.8137928284       23.9530763478
H         19.1896047066       17.5889732619       23.9838418737
H         19.3526321144       18.9251329950       24.9413194159
C         19.8282728211       19.3093563425       22.9166628381
H         20.8905119681       19.1189443630       23.0946048312
H         19.6507336397       20.3837574177       23.0094704428
C         19.4501460900       18.8407597543       21.4993312571
H         19.3960781901       17.7443208382       21.4776448136
H         18.4531660826       19.2129442548       21.2456089976
C         20.4554408214       19.3297870171       20.4354977227
H         21.4669696836       19.0078026207       20.7120571413
H         20.4679049580       20.4269810451       20.4127325691
C         20.1020775215       18.7872915210       19.0336937680
H         20.1189333708       17.6893902657       19.0490888069
H         19.0785305684       19.0862275251       18.7687233099
C         21.0784961244       19.2938802236       17.9522194040
H         22.0924513861       18.9148712799       18.1290812940
H         20.7647678142       18.9507575298       16.9578637386
H         21.1158875501       20.3909520229       17.9338437055
