   139
FE Rank=1      G=546.945           E=369.034           -TS=177.911              
C         16.2437206404       15.1984126546       20.5639909926
H         15.2219764669       15.0612466956       20.1869501152
O         16.4847132214       16.5631421915       20.9670229427
C         16.5351370444       14.2603712042       21.7667689393
H         16.4576988199       13.2288416931       21.3991706256
O         15.5893832427       14.4428916638       22.8304816684
H         15.6319810095       15.3944750157       23.1025868819
C         17.9825836564       14.4764125381       22.2743252985
H         18.0594370384       15.4976063856       22.6714077282
O         18.2831523541       13.5333076927       23.3080777496
H         17.4840536347       13.5168959573       23.8809365341
C         18.9959336936       14.3290540206       21.1119693609
H         19.0653355065       13.2676191579       20.8399481765
C         18.5874943837       15.1511020327       19.8578261595
H         18.6888492604       16.2161714257       20.0960239645
O         17.2029622962       14.8707812389       19.5318967858
C         19.4666013608       14.8952655971       18.6048258007
H         20.2883983998       15.6222618074       18.6048140406
H         18.8659413738       15.0985236405       17.7082266009
O         20.0050840600       13.5683210324       18.5457350125
H         20.7043200048       13.5064568648       19.2372942701
C         14.8343057624       20.2585862830       21.6523277383
H         14.2076978900       21.1416514584       21.8336650451
O         16.2066999807       20.6194415343       21.4066059209
C         14.7976254766       19.3219462975       22.8812058564
H         13.7611114384       18.9844140984       23.0113211354
O         15.2258357580       20.0166478873       24.0644344733
H         15.5408921018       20.9093138441       23.7795767001
C         15.6847097857       18.0810755915       22.6366749043
H         16.7240507564       18.4224120726       22.5778588471
O         15.5396730759       17.1788895551       23.7364317750
H         15.5954674611       17.7513316641       24.5347786489
C         15.3409877180       17.3745404029       21.2997789782
H         14.4317599933       16.7746332416       21.4385657248
C         15.1591538801       18.3726203306       20.1184258619
H         16.1569279382       18.7247840233       19.8285048596
O         14.3566336945       19.5169837073       20.5106474289
C         14.5218742945       17.7313995211       18.8628624832
H         15.2500933374       17.0404121273       18.4168766899
H         14.3277650637       18.5214845215       18.1249871657
O         13.3118687784       17.0287153905       19.1717334388
H         12.9247385968       16.7153660915       18.3251604497
C         18.5620378622       24.0023666285       20.8300931583
H         18.9533215211       24.9850901695       20.5365576709
O         19.6045909218       23.1360405120       21.3183964486
C         17.4924907577       24.1349182015       21.9475507236
H         16.6736176327       24.7465552705       21.5470275833
O         18.0325445416       24.7767453738       23.1138938154
H         18.8582051907       24.2910377944       23.3657813541
C         16.9169045857       22.7445274205       22.3163286553
H         17.7208575494       22.1601329652       22.7805668869
O         15.8372931355       22.8963052824       23.2433900202
H         16.1472080897       23.5706197436       23.8891891121
C         16.4347078108       21.9922531032       21.0497516631
H         15.5223549310       22.4758031848       20.6762713312
C         17.5023810184       21.9916057868       19.9249206268
H         18.3535014307       21.3847237236       20.2574011128
O         17.9428616275       23.3522942746       19.6961080552
C         17.0168797190       21.3780377233       18.5851071291
H         17.2284700221       20.3012781736       18.6030750219
H         17.6126498902       21.8046440402       17.7671843214
O         15.6198298381       21.5841337968       18.3382584771
H         15.1240737525       21.0330089033       18.9863398443
C         23.6299913172       22.7952520202       21.9720679431
H         24.7085968329       22.8917563235       22.1523569647
O         23.2497311530       21.4317860693       21.7023865990
C         22.8349218285       23.2740628851       23.2096747828
H         23.0262228413       24.3469526927       23.3419100761
O         23.2525669156       22.5637014589       24.3858746346
H         23.6915969549       21.7334373339       24.0785104564
C         21.3235002972       23.0745129291       22.9641734325
H         21.1514918566       21.9988645624       22.8679716970
O         20.5714365298       23.5724077942       24.0750078216
H         21.1020890554       23.3237127977       24.8664379792
C         20.8647048249       23.7491398518       21.6478744200
H         20.7687479604       24.8291869498       21.8216517214
C         21.8250130157       23.4694794014       20.4529663213
H         21.6464355123       22.4378863509       20.1265520174
O         23.2174114112       23.5993982903       20.8471851124
C         21.5755736020       24.3815612161       19.2283626237
H         20.6246558445       24.0893931812       18.7626814107
H         22.3681901802       24.2017514861       18.4895375709
O         21.5349719117       25.7676674337       19.5889075796
H         21.4554131609       26.2890542276       18.7603113450
C         24.8916634029       17.6925879223       20.8927146693
H         25.5315741167       16.8671223613       20.5550036522
O         23.5908326294       17.2238561182       21.3018749416
C         25.5387086937       18.4555115812       22.0811161759
H         26.4925955895       18.8642393395       21.7231378761
O         25.7948582011       17.5848737039       23.1936890124
H         24.9373619463       17.1492863088       23.4323286953
C         24.6451329297       19.6444574518       22.5152890223
H         23.7085012152       19.2391152158       22.9224106337
O         25.3150184814       20.4133370244       23.5194295760
H         25.7014066958       19.7505507721       24.1347391156
C         24.3015755174       20.5414885939       21.2997357655
H         25.2047014949       21.0844914033       20.9912487473
C         23.7668327274       19.7154294727       20.0985306070
H         22.7938184668       19.2896023123       20.3764925319
O         24.6975034083       18.6409298683       19.8183888526
C         23.5395605149       20.5375258389       18.8021699745
H         22.5014889195       20.8926451649       18.7958679494
H         23.6483207197       19.8676553246       17.9387878069
O         24.4276700133       21.6553696074       18.6726562609
H         24.1657307119       22.3175283944       19.3535504174
C         21.2692804243       13.8779440967       21.8711010439
H         20.8418052644       12.8804709505       22.0369317251
O         20.2510345238       14.8513560328       21.5766877618
C         22.0227150633       14.3467572985       23.1374168458
H         22.8456060604       13.6423026446       23.3155946709
O         21.1423133521       14.3494545607       24.2729281459
H         20.2198735692       14.3408796858       23.9185488630
C         22.6293131378       15.7519942312       22.9206117387
H         21.8024910172       16.4664576639       22.8313912653
O         23.4380356865       16.0958897284       24.0495384847
H         22.8877156883       15.8646800880       24.8312363775
C         23.4679695119       15.8237321735       21.6194191045
H         24.4431217824       15.3535276730       21.8038347386
C         22.7641136500       15.1509134220       20.4045880620
H         21.9517954154       15.8159924358       20.0866497606
O         22.2017589285       13.8633172168       20.7704411487
C         23.6919887271       14.9505050496       19.1826691065
H         23.9068678079       15.9337340616       18.7425891793
H         23.1533374187       14.3654773488       18.4250358802
O         24.9176416914       14.2986631860       19.5376740868
H         25.4172190212       14.1311927326       18.7087815158
C         19.6523611750       18.2530423424       21.8196359844
H         18.7239898583       18.2867175819       21.2355761634
H         20.3208166441       17.5070834600       21.3778186855
C         19.4528949907       18.1803880612       23.3711325373
H         18.5826377218       17.6197931304       23.7267078194
H         20.3322572137       17.8557121712       23.9401045103
C         19.2803686001       19.7270564339       23.2887850290
H         18.2706235860       20.0392078769       22.9961407245
C         20.2916371738       19.6474526589       22.1048272898
H         21.3435064676       19.6097735669       22.4113640341
H         20.1791791680       20.4004324574       21.3191134348
O         19.7160663974       20.4489342800       24.4181341057
H         19.7246265783       21.4012598917       24.1845132327
