    17
VM2 Rank=1      G=-29.181           E=-40.002           -TS=10.820              
C         19.7723678223       19.0786587519       25.2791389841
O         19.3188288572       19.9200283437       26.0302083215
O         20.4466230670       18.1425413045       25.6657359699
C         19.4751453255       19.2204705120       23.8280322004
H         18.8676660483       20.0785992735       23.5496551598
C         19.9148638137       18.3608316416       22.8810608503
H         20.5261143742       17.4991151008       23.1486297041
C         19.6098551384       18.5135178813       21.4069866563
H         18.5799572738       18.8710064347       21.2716329261
H         19.6671993485       17.5326863365       20.9159980850
C         20.5929076206       19.4889219638       20.7278602505
H         20.5338530257       20.4719838888       21.2153665272
H         21.6220748731       19.1280854590       20.8626905831
C         20.2944083553       19.6430296012       19.2229767671
H         20.3778367090       18.6785809936       18.7049912630
H         19.2806932841       20.0325471139       19.0614409727
H         21.0033526015       20.3400490904       18.7574744592
    17
VM2 Rank=2      G=-29.142           E=-39.964           -TS=10.822              
C         19.9275171962       18.8981189019       25.2799642140
O         19.1015525541       19.7072287541       25.6588004545
O         20.6878786088       18.3271871858       26.0373230648
C         20.0295795523       18.5756725990       23.8309043562
H         20.7879345035       17.8447800893       23.5596069660
C         19.2499025195       19.1346293937       22.8776170669
H         18.4884930208       19.8696000751       23.1380932007
C         19.3614679058       18.8025449794       21.4057088176
H         18.4025858973       19.0041967176       20.9094529783
H         19.5605953311       17.7299199444       21.2767460564
C         20.4765949469       19.6242381623       20.7272336974
H         20.2741414693       20.6966428414       20.8557895512
H         21.4374709389       19.4204195774       21.2199152347
C         20.5905067164       19.2983800239       19.2244483286
H         19.6518462327       19.5234023791       18.7012735161
H         21.3882976816       19.8919954756       18.7593887200
H         20.8236903360       18.2367899305       19.0692531879
    17
VM2 Rank=3      G=-28.489           E=-39.464           -TS=10.974              
C         19.6119789949       18.9988003679       25.1047212520
O         20.0486631624       20.0912206551       25.4151488713
O         18.9312917885       18.3235977800       25.8521016056
C         19.9134359491       18.4418877559       23.7582197868
H         19.4937432777       17.4614656909       23.5451641183
C         20.6554488986       19.0825201892       22.8265590531
H         21.0779045809       20.0666181135       23.0282544715
C         20.9548447182       18.5110518213       21.4565971151
H         21.1695732657       17.4373972115       21.5442676639
H         21.8647601636       18.9730860634       21.0505522815
C         19.7866325972       18.7144937775       20.4669276977
H         20.0155144617       18.1908177847       19.5285621980
H         18.8749256128       18.2521576176       20.8699974677
C         19.5227038912       20.2044276531       20.1617246184
H         20.4179063798       20.6845956837       19.7455540406
H         18.7104287020       20.3106304464       19.4310830516
H         19.2319887377       20.7492208139       21.0694177429
    17
VM2 Rank=4      G=-28.488           E=-39.460           -TS=10.972              
C         19.5813779702       19.0519900968       25.1000987428
O         19.6102455739       19.8933680988       25.9770596697
O         18.9769608571       18.0019384541       25.2119544916
C         20.3283525148       19.3405114431       23.8459553378
H         20.8474013784       20.2955860153       23.8115940751
C         20.3819580080       18.4975167214       22.7897972399
H         19.8629931311       17.5395143241       22.8123057657
C         21.1413556278       18.7996323807       21.5150216104
H         21.3882737641       17.8630487439       20.9972025814
H         22.1003080098       19.2752332527       21.7614815115
C         20.3485001153       19.7222761050       20.5633556750
H         20.1010150774       20.6608742351       21.0783438326
H         20.9861333728       19.9912834602       19.7100024428
C         19.0562493329       19.0607667001       20.0387572327
H         19.2808446426       18.1259720242       19.5087939219
H         18.3665897291       18.8312863500       20.8615144762
H         18.5363102498       19.7296085964       19.3407456993
    17
VM2 Rank=5      G=-28.468           E=-39.435           -TS=10.967              
C         19.8302513113       19.1915562350       25.0914471735
O         19.3133195495       20.0184713174       25.8172393413
O         20.6965410045       18.4272164537       25.4732513692
C         19.3640745091       19.1287237906       23.6797797813
H         18.5882074087       19.8394750475       23.4048803871
C         19.8514274779       18.2616406275       22.7631346162
H         20.6314295018       17.5486667717       23.0291865845
C         19.3767284692       18.2019297933       21.3259720823
H         18.4116293423       18.7150192471       21.2161382843
H         19.1982863300       17.1538762917       21.0507443005
C         20.4022603438       18.8098991694       20.3442327228
H         21.3686982225       18.2988741839       20.4551859572
H         20.0660058892       18.6251545294       19.3146687701
C         20.5903973347       20.3285626131       20.5469429135
H         19.6371370462       20.8608729715       20.4327827163
H         20.9880062411       20.5485862198       21.5462182723
H         21.2949111155       20.7322846931       19.8083395202
    17
VM2 Rank=6      G=-28.467           E=-39.435           -TS=10.968              
C         19.5892334555       19.1221713224       25.0683887511
O         19.4557268804       20.0595337014       25.8308250210
O         19.2057630466       17.9976691796       25.3308641451
C         20.2569284948       19.3859911090       23.7650650926
H         20.5749926644       20.4119081540       23.5946765621
C         20.4698539595       18.4397419765       22.8222719108
H         20.1512424450       17.4101616351       22.9834200760
C         21.1476692558       18.7119487105       21.4953180115
H         21.8969798140       17.9310808311       21.3088027153
H         21.6986430261       19.6616504771       21.5304621543
C         20.1463469672       18.7361953382       20.3197640907
H         20.7036319392       18.8087490777       19.3756406806
H         19.5929649279       17.7874870689       20.2854141633
C         19.1534779402       19.9147486624       20.4095029773
H         18.4841449252       19.9227597231       19.5395633298
H         18.5319198809       19.8413245220       21.3113505180
H         19.6852301582       20.8747286039       20.4372402777
