   126
VM2 Rank=1      G=522.287           E=363.386           -TS=158.901             
C         17.0153886867       16.2434313823       22.8198019483
H         16.0440790218       16.2592751018       23.3262795341
O         17.2668293506       17.5048853583       22.1556177451
C         18.1329648555       15.9821644714       23.8646788465
H         17.9099438007       15.0167376591       24.3378790805
O         18.1708235097       17.0021717914       24.8771777434
H         17.2741284690       17.0663936197       25.2676177340
C         19.5138778512       15.8638934229       23.1800061445
H         19.7760965053       16.8467424197       22.7646030931
O         20.4827448781       15.4693277866       24.1574183080
H         20.3388735911       16.0853297346       24.9109571097
C         19.4794859451       14.8348823771       22.0233762411
H         19.4331684195       13.8253343055       22.4526921639
C         18.2657848632       15.0530094304       21.0800712493
H         18.4314064152       15.9789968828       20.5211709136
O         17.0497108476       15.1643965067       21.8578822475
C         18.0658098910       13.9195325552       20.0502814953
H         18.9245389978       13.9026778260       19.3661266550
H         17.1752861169       14.1442016628       19.4478954113
O         17.9237290228       12.6514781411       20.6972403892
H         17.1540443186       12.7361764303       21.3030747323
C         15.0176196900       20.3353539073       20.0320723493
H         14.3993906941       20.8626483086       19.2945186307
O         15.5209953003       21.2418333063       21.0318801899
C         14.1749421725       19.2593769317       20.7576400293
H         13.7968859706       18.5684657159       19.9926501922
O         13.0670139064       19.8700255084       21.4359555385
H         13.4417786919       20.6332020642       21.9314726874
C         15.0262593841       18.4423084459       21.7628519343
H         15.3032456986       19.1043867422       22.5947339694
O         14.2116921662       17.3686065359       22.2438810064
H         13.3440188626       17.7789358072       22.4571980821
C         16.3399583105       17.9105472572       21.1170108504
H         16.1027523897       17.0750169568       20.4457691768
C         17.0626579212       19.0209450231       20.3045330319
H         17.4648215624       19.7583789291       21.0123944172
O         16.1279089759       19.6614996298       19.4024075750
C         18.2436135825       18.5061849443       19.4529054211
H         19.0104314780       18.0919043792       20.1202031493
H         18.6935427235       19.3579578372       18.9254380713
O         17.8162301341       17.5161434505       18.5134911206
H         17.0934508271       17.9276786239       17.9906091496
C         18.4292525161       24.1010415434       20.8764814815
H         19.1133464579       24.9530138252       20.7712072840
O         19.1314560475       22.9030199262       21.2713780864
C         17.2925945631       24.4192130391       21.8779713611
H         16.7149115185       25.2521812686       21.4563596751
O         17.8015197968       24.8075681119       23.1632780589
H         18.2598716308       24.0138970868       23.5386675293
C         16.3455016208       23.2075409012       22.0250866034
H         16.8987109719       22.4277492307       22.5670276434
O         15.2055288203       23.6038895933       22.7952939409
H         15.5700191130       24.0810771022       23.5730930376
C         15.8848375131       22.5986956887       20.6684896423
H         15.0009158166       23.1497511365       20.3228176421
C         16.9847868774       22.6282203642       19.5481494610
H         17.6444149190       21.7612611483       19.6763629207
O         17.7798350560       23.8375567409       19.6225559096
C         16.4269189848       22.6038958865       18.1029307915
H         15.9270169146       21.6509839781       17.9001062238
H         17.2715624111       22.6712375950       17.4040430805
O         15.5208630650       23.6881436428       17.8808815515
H         16.0213796585       24.5094585433       18.0853684928
C         22.6765626315       21.6613411734       23.0687682803
H         23.6107743816       21.6347095879       23.6403896135
O         22.4722227399       20.4135817294       22.3638072936
C         21.4896376144       21.9024571161       24.0393728011
H         21.6789476364       22.8580857809       24.5459703901
O         21.3829792945       20.8624568663       25.0263004976
H         22.2507711023       20.7898138116       25.4760671659
C         20.1589690250       22.0353305732       23.2639072435
H         19.9265952627       21.0611546425       22.8119177939
O         19.1249456749       22.4109628925       24.1801031291
H         19.2171183004       21.7799422412       24.9292998249
C         20.2720705708       23.0872131533       22.1331586058
H         20.2880755777       24.0879528551       22.5847215363
C         21.5478872449       22.8871400135       21.2713358719
H         21.4217086349       21.9726179870       20.6839836298
O         22.7076995997       22.7593987261       22.1285109381
C         21.8173918555       24.0408280992       20.2805791594
H         21.0077056459       24.0719419839       19.5394938196
H         22.7473674996       23.8276263515       19.7364573220
O         21.9138006894       25.2956047612       20.9609801200
H         22.6400869041       25.1982908769       21.6164662073
C         24.8640178479       17.6245484411       20.3437781138
H         25.5318418966       17.1116645045       19.6400797068
O         24.2937376800       16.6986313592       21.2883223516
C         25.6540914537       18.6852358816       21.1468982951
H         26.0833692009       19.3910266436       20.4236589935
O         26.7131830543       18.0603875848       21.8874368106
H         26.3057671335       17.2876970592       22.3406334208
C         24.7351310991       19.4826499171       22.1073318955
H         24.4020746959       18.8042817583       22.9048203442
O         25.5139716182       20.5459709273       22.6645582400
H         26.3652051222       20.1308633594       22.9287890033
C         23.4685658325       20.0281053419       21.3834705538
H         23.7507727278       20.8767110015       20.7469409244
C         22.8041824296       18.9346528700       20.5012257143
H         22.3548208511       18.1835049762       21.1648996478
O         23.7991702388       18.3116053337       19.6528719195
C         21.6842078599       19.4671311230       19.5808857291
H         20.8730495909       19.8685351016       20.2020312736
H         21.2721838501       18.6263714696       19.0068340781
O         22.1744847412       20.4754360312       18.6930309509
H         22.9318254603       20.0739428529       18.2130146750
C         21.4050199243       13.8450882810       20.8763347061
H         20.7303684467       12.9958563961       20.7072969243
O         20.6765093939       15.0354656541       21.2458816111
C         22.4703776460       13.5062007908       21.9470243966
H         23.0762486886       12.6814254064       21.5495621539
O         21.8745845354       13.0925994162       23.1862995099
H         21.3909708331       13.8789285909       23.5450769499
C         23.4042809820       14.7140448460       22.1830569337
H         22.8145932932       15.4832354782       22.7011590253
O         24.4888963175       14.3016146248       23.0217232812
H         24.0721406024       13.8092303065       23.7629418298
C         23.9566739793       15.3495466747       20.8737600811
H         24.8626452950       14.8049030362       20.5787228539
C         22.9363494262       15.3431550220       19.6801028034
H         22.2688702980       16.2078308531       19.7799663230
O         22.1389029013       14.1331183033       19.6755212680
C         23.5922155078       15.3959628497       18.2774207167
H         24.1042157951       16.3523943011       18.1285090179
H         22.7976535748       15.3431725698       17.5209249301
O         24.5121424848       14.3157500206       18.0965618850
H         23.9993274952       13.4908574212       18.2497356507
