    17
VM2 Rank=1      G=15.404            E=-2.454            -TS=17.858              
N         19.6262142415       18.8413663020       24.1383263641
H         20.0581207015       19.1906780363       24.9999214905
H         19.6530223870       17.8183466686       24.1874025730
H         18.6402032780       19.1181126285       24.1681609880
C         20.3271187585       19.3692415844       22.9024304341
H         21.3758166062       19.0639150535       22.9527458877
H         20.2866165470       20.4614917733       22.9319743929
C         19.7034753536       18.8636772229       21.5887587205
H         19.7320598587       17.7660420711       21.5694900387
H         18.6464400938       19.1587633659       21.5488758822
C         20.4461308360       19.4243347875       20.3560189407
H         21.5050109102       19.1320755752       20.3970626305
H         20.4206552382       20.5230890946       20.3764474230
C         19.8260608104       18.9213801032       19.0344655406
H         20.3674079733       19.3305759125       18.1715921116
H         18.7755138845       19.2282943479       18.9486607248
H         19.8683926398       17.8263054801       18.9694501248
    17
VM2 Rank=2      G=15.753            E=-2.202            -TS=17.955              
N         19.2948503639       19.3739565604       23.6868895135
H         18.8519153382       20.1590900518       23.2013777082
H         19.4571563262       19.6751513366       24.6532161316
H         18.6077790863       18.6149515322       23.7241370168
C         20.5806326020       18.9410200363       23.0085783371
H         21.0149114484       18.1344112467       23.6055759940
H         21.2743852184       19.7859521107       23.0244839662
C         20.3888927574       18.4550393908       21.5582316833
H         21.3496628916       18.0703034109       21.1910508611
H         19.6880998690       17.6097212387       21.5441608143
C         19.8905481063       19.5726670096       20.6119993215
H         20.5811144037       20.4268867854       20.6525163421
H         18.9108344107       19.9407645170       20.9455375883
C         19.7740761703       19.0773170029       19.1543011446
H         19.4188940775       19.8825552671       18.4981975933
H         19.0654008713       18.2425326872       19.0761034765
H         20.7458200334       18.7372918058       18.7731428927
    17
VM2 Rank=3      G=15.775            E=-2.180            -TS=17.955              
N         20.0681564942       18.3817324227       23.7016294189
H         20.7280582948       17.7516245406       23.2370432228
H         19.1637937120       17.9015595193       23.7348775507
H         20.3860826463       18.4834264329       24.6708717322
C         19.9723171973       19.7215437641       22.9970012357
H         20.9608374469       20.1882570512       23.0184943577
H         19.2877847884       20.3505108679       23.5727084718
C         19.4751112657       19.6274775068       21.5408455868
H         18.4844905520       19.1540250411       21.5212640453
H         19.3420733326       20.6461481355       21.1528606762
C         20.4506052867       18.8541008455       20.6226418416
H         20.5633799580       17.8205067838       20.9769682032
H         21.4469718979       19.3159698647       20.6689627758
C         19.9628097561       18.8351454609       19.1578819170
H         18.9813971206       18.3502965425       19.0745073926
H         20.6662135215       18.2821417888       18.5219212952
H         19.8760107600       19.8532802327       18.7565689505
    17
VM2 Rank=4      G=15.778            E=-2.177            -TS=17.955              
N         19.5539530814       18.9865502595       24.0025986611
H         18.9632693626       18.1495115714       24.0129764931
H         19.0937753752       19.6814837992       24.5993796327
H         20.4351731653       18.7384240436       24.4625268325
C         19.7744533491       19.5082977286       22.5967118455
H         20.3838525954       20.4135728385       22.6639192620
H         18.8000812851       19.7807344523       22.1829282929
C         20.4647699509       18.4873746172       21.6719753842
H         21.4239219985       18.1902572808       22.1165268933
H         19.8534885100       17.5775181101       21.6057699373
C         20.7195350025       19.0454347743       20.2522333461
H         21.2830393446       18.3012697831       19.6720071982
H         21.3589370869       19.9373510763       20.3141349215
C         19.4162886161       19.3923426203       19.4964807631
H         19.6408137848       19.7255958479       18.4749436522
H         18.8642394496       20.1997979327       19.9938208977
H         18.7559120493       18.5182509928       19.4258374043
    17
VM2 Rank=5      G=15.814            E=-2.140            -TS=17.955              
N         19.7513392004       18.7333132409       24.0063410945
H         18.7952816528       18.3650884786       24.0098021429
H         19.7194827317       19.6567786008       24.4488855166
H         20.3041289270       18.1285339721       24.6223846668
C         20.3312615202       18.7938113947       22.6072730976
H         20.3631950808       17.7749529471       22.2126249937
H         21.3569641037       19.1648956333       22.6823653225
C         19.5233754565       19.6953073725       21.6540758200
H         18.4927595557       19.3235238430       21.5799394784
H         19.4633428109       20.7060010364       22.0792487353
C         20.1470426381       19.7799135476       20.2413166081
H         21.1671205138       20.1834647724       20.3103784328
H         19.5714120627       20.4970826711       19.6394044705
C         20.1759811848       18.4176544443       19.5109933798
H         20.8171015985       17.6946791312       20.0309566801
H         20.5684224809       18.5351840960       18.4925714088
H         19.1682151319       17.9891713260       19.4339632321
    17
VM2 Rank=6      G=16.320            E=-1.811            -TS=18.131              
N         19.6053123208       18.3342943975       23.4320144805
H         18.8595599328       18.2946449643       24.1341178511
H         20.4850488348       18.1450694548       23.9215402434
H         19.4467682514       17.5580063943       22.7834089214
C         19.6333570748       19.6696788742       22.7138100528
H         19.7676811979       20.4503453831       23.4675042384
H         18.6597629202       19.8211002147       22.2405353081
C         20.7497903798       19.7841823768       21.6553276495
H         20.7340310290       20.7991841248       21.2366076135
H         21.7252623604       19.6714345572       22.1467447873
C         20.6329953927       18.7559260754       20.5026743318
H         20.7393544457       17.7353747613       20.8948690920
H         21.4736073941       18.9036912244       19.8102575455
C         19.3075448318       18.8759182761       19.7161734854
H         18.4405554725       18.6461351654       20.3482165350
H         19.2962967594       18.1750360894       18.8714212174
H         19.1785180093       19.8885766094       19.3125128569
    17
VM2 Rank=7      G=16.365            E=-1.766            -TS=18.131              
N         19.1396430060       18.9320685641       23.4232201787
H         18.3575255956       18.9561348389       22.7627970237
H         19.1644514989       19.8402509323       23.8964723270
H         18.9086741668       18.2317122347       24.1351337595
C         20.4514355958       18.6196161388       22.7293664462
H         20.3667829649       17.6299872735       22.2729969978
H         21.2303646047       18.5729232129       23.4952829844
C         20.8507820943       19.6545025967       21.6572420919
H         20.9730829708       20.6368374218       22.1324366654
H         21.8369775785       19.3834502893       21.2575521348
C         19.8418423759       19.7713158156       20.4876464038
H         20.2006430188       20.5374890276       19.7861163274
H         18.8727785785       20.1309681835       20.8594251119
C         19.6452969280       18.4424968848       19.7225248794
H         18.9751377637       18.5872976430       18.8652685411
H         19.2014209313       17.6696683077       20.3625704048
H         20.6013313394       18.0626058174       19.3394476435
    17
VM2 Rank=8      G=18.226            E=0.211             -TS=18.016              
N         19.4441734206       18.2038891626       23.2130066692
H         19.3472353207       17.5463325516       22.4351460324
H         18.5072891767       18.5598611631       23.4251656063
H         19.7489029818       17.6639513567       24.0293581220
C         20.4117836703       19.3245682853       22.8846185228
H         21.4054966637       18.8938706688       22.7351652427
H         20.4547205344       19.9770381904       23.7609614217
C         20.0155220705       20.1640135235       21.6517675956
H         18.9414929033       20.3905753145       21.6810921664
H         20.5295214559       21.1315439001       21.7261727175
C         20.3950430053       19.5262130948       20.2909298440
H         21.4811194817       19.3626821394       20.2494901222
H         20.1659715361       20.2482089009       19.4945395332
C         19.6624778333       18.2013159338       19.9796773684
H         20.0156794256       17.3858600715       20.6215155627
H         19.8493932809       17.8980298813       18.9412958075
H         18.5770257357       18.3069345157       20.1053430461
    17
VM2 Rank=9      G=18.277            E=0.261             -TS=18.016              
N         18.9769995048       18.8033008532       23.2041255764
H         18.5160832098       19.2457400382       24.0057661427
H         19.0903016418       17.8120213291       23.4365216491
H         18.3269951562       18.8551530213       22.4156780817
C         20.3046677617       19.4620125625       22.8825124438
H         20.9351869456       19.3607695628       23.7700551326
H         20.1318976581       20.5278151493       22.7107073186
C         21.0395526475       18.8500898280       21.6712708667
H         22.1021672248       19.1137088398       21.7561318646
H         20.9963885383       17.7539774187       21.7202997318
C         20.5334957940       19.3485043305       20.2935216177
H         21.1889019344       18.9352522693       19.5139988194
H         20.6411092697       20.4406644458       20.2332958697
C         19.0742842920       18.9560924257       19.9685694954
H         18.9094286118       17.8802629965       20.1119773003
H         18.8408418802       19.1920325592       18.9221504151
H         18.3608543478       19.5097056613       20.5900273622
