    16
VM2 Rank=1      G=-35.660           E=-45.569           -TS=9.910               
C         20.0717622250       19.4317932036       24.6566849839
O         20.4840971057       20.5080194374       25.0408199555
O         19.2403096692       18.7783947019       25.2546824193
C         20.6140152693       18.8794398997       23.3431212054
H         20.6286449622       17.7850520440       23.4134844817
H         21.6540145796       19.2111205932       23.2371037815
C         19.7839265945       19.3242434758       22.1138271607
H         18.7429712569       18.9957567467       22.2405505133
H         19.7683265603       20.4218978541       22.0641955574
C         20.3534419909       18.7521753446       20.7989309773
H         20.3685698040       17.6544909951       20.8479052275
H         21.3942098623       19.0809714361       20.6715223778
C         19.5224471454       19.1989339370       19.5799332978
H         19.5162178915       20.2930393553       19.4884707762
H         18.4829951874       18.8560423313       19.6661688878
H         19.9405628560       18.7837657849       18.6536697099
    16
VM2 Rank=2      G=-34.793           E=-44.817           -TS=10.023              
C         19.9234942626       19.5293658033       24.5489905503
O         20.4257474415       20.5943702424       24.8480976201
O         19.7699595204       18.6152052271       25.3343137959
C         19.4800234469       19.3210550316       23.1052063419
H         19.1445834970       20.2888849900       22.7154595311
H         18.6104863958       18.6528807292       23.1091192703
C         20.6019105162       18.7326114464       22.2107240358
H         21.4502403976       19.4302627204       22.1802517815
H         20.9755525708       17.8091831367       22.6745134054
C         20.1370387776       18.4125864727       20.7713194287
H         19.2962473183       17.7057912263       20.8011606980
H         20.9533594750       17.9021442618       20.2418124432
C         19.7318260349       19.6678057764       19.9693482273
H         18.8446975603       20.1492550799       20.3994552532
H         19.4940313338       19.3998088162       18.9317361463
H         20.5477219267       20.4021057760       19.9501635524
    16
VM2 Rank=3      G=-34.788           E=-44.811           -TS=10.023              
C         19.9194592747       19.5237524193       24.5496891310
O         20.8187283294       20.0734752850       25.1539369394
O         19.1179013463       18.7757082509       25.0730365956
C         19.8031706302       19.7705331277       23.0496386072
H         20.1478723602       20.7912025429       22.8447427850
H         18.7405505671       19.7269574838       22.7849550862
C         20.6165157467       18.7529533013       22.2082122758
H         21.6584979222       18.7591333574       22.5570166246
H         20.2342259278       17.7388945530       22.3894513648
C         20.5985444459       19.0545376363       20.6919223804
H         21.2816843125       18.3588319865       20.1853424788
H         20.9917750024       20.0642201307       20.5094613459
C         19.1956802269       18.9220399795       20.0615640706
H         18.7697868739       17.9290287944       20.2559746854
H         19.2494037753       19.0595446726       18.9738072867
H         18.5051635983       19.6769732370       20.4578527977
    16
VM2 Rank=4      G=-34.265           E=-44.483           -TS=10.219              
C         20.1242592949       19.3850102833       24.4355570432
O         21.2505232645       19.7942700381       24.6363042070
O         19.6401361306       18.4373004331       25.0219124591
C         19.2612662540       20.1134837972       23.4088794582
H         19.6864896170       21.1098849735       23.2372609872
H         18.2727144463       20.2639597640       23.8587191154
C         19.1073298241       19.3586130427       22.0629537519
H         18.7075369050       18.3528281848       22.2531785922
H         18.3659845247       19.8816265957       21.4437412439
C         20.4370844879       19.2542874229       21.2850997903
H         21.1810358751       18.7143036681       21.8873279264
H         20.8418514888       20.2600871731       21.1064691608
C         20.2494007441       18.5300349827       19.9372932903
H         19.8740944994       17.5094775572       20.0891445510
H         21.2032758140       18.4636578815       19.3980032210
H         19.5355691864       19.0667323377       19.2986883926
    16
VM2 Rank=5      G=-34.178           E=-44.396           -TS=10.218              
C         20.1070611735       19.3610890001       24.4385248236
O         20.9071869978       20.1992967471       24.8039700874
O         20.1123768284       18.2116116106       24.8321437902
C         19.0236477816       19.7829911445       23.4497340933
H         18.6132062286       20.7374467266       23.8001408799
H         18.2068490507       19.0521267164       23.4916989468
C         19.5258654307       19.9406005563       21.9909754715
H         18.7221026715       20.3768030932       21.3824932368
H         20.3618954882       20.6534675136       21.9686678181
C         19.9658693274       18.5988985167       21.3661428290
H         19.1328267301       17.8831913595       21.4004906417
H         20.7845129343       18.1627472595       21.9554811741
C         20.4279924607       18.7785124248       19.9065089051
H         19.6180020530       19.1815396964       19.2844957513
H         20.7378408080       17.8165015205       19.4779696588
H         21.2813610165       19.4667452959       19.8469463372
    16
VM2 Rank=6      G=-33.969           E=-44.385           -TS=10.416              
C         20.0196112677       19.3904954143       24.6749330286
O         20.1520325085       20.5986740484       24.6515742652
O         19.9477632558       18.7519983520       25.7056961220
C         19.9367587715       18.6092917607       23.3623971258
H         18.9893924640       18.0573770781       23.3693048360
H         20.7416577178       17.8648571927       23.3732664713
C         20.0338681997       19.4665716875       22.0724403794
H         19.2283696326       20.2139903049       22.0698130396
H         20.9824428473       20.0212551872       22.0737744921
C         19.9414628593       18.5994995653       20.7992923732
H         18.9924420256       18.0455615140       20.7958541337
H         20.7475622866       17.8527043241       20.7998075321
C         20.0385031376       19.4564691717       19.5216667058
H         19.2247429987       20.1923336143       19.4796265226
H         19.9711272793       18.8249724394       18.6262260712
H         20.9928115460       19.9980555871       19.4836033814
    16
VM2 Rank=7      G=-33.021           E=-43.374           -TS=10.353              
C         20.0626280323       19.5193049209       24.2841037940
O         20.7089162678       20.5481932654       24.2834018108
O         20.2325943995       18.6214874104       25.0852394812
C         18.9551993003       19.3576830886       23.2462100075
H         18.7519094781       20.3348601371       22.7933907885
H         18.0444162704       19.0697328001       23.7842043771
C         19.2597094209       18.2993430493       22.1508249195
H         19.4047239543       17.3232182087       22.6340483325
H         18.3820755436       18.1928548894       21.4990669707
C         20.5014922782       18.6174173590       21.2843411253
H         20.6793523183       17.7757272717       20.6009289883
H         21.3936378287       18.6920297644       21.9216058436
C         20.3494603010       19.9095709065       20.4538788617
H         19.4444171569       19.8752279286       19.8335697173
H         21.2119001066       20.0410503460       19.7877180026
H         20.2925849892       20.7941760040       21.1009685394
    16
VM2 Rank=8      G=-32.970           E=-43.322           -TS=10.352              
C         19.9434126690       19.3535079231       24.3046489122
O         20.9342933111       19.5973524446       24.9645579605
O         19.1878450676       18.4328650155       24.5451383699
C         19.6145250753       20.2745883957       23.1328150394
H         19.6510258319       21.3041031665       23.5078461969
H         18.5787866880       20.0940102847       22.8231594774
C         20.5796928251       20.1349935612       21.9238301694
H         20.3186660148       20.8859910031       21.1660445481
H         21.5990340969       20.3747578970       22.2567149076
C         20.5843527693       18.7326486577       21.2700729485
H         20.8782403553       17.9754055388       22.0102150490
H         21.3528876940       18.7122642984       20.4851732724
C         19.2258782826       18.3470440020       20.6469366000
H         18.8919874573       19.1068286373       19.9283894783
H         18.4521667161       18.2349389949       21.4171895999
H         19.3055915166       17.3899867330       20.1153850906
    16
VM2 Rank=9      G=-31.565           E=-42.085           -TS=10.520              
C         20.0922377836       19.2756989310       24.2323125430
O         21.0318416752       19.9899316737       24.5224446574
O         19.9335030400       18.1610846531       24.6897573055
C         19.0078944722       19.8403747769       23.3163421843
H         18.5829102598       20.7058379149       23.8379844893
H         18.2007625141       19.1036787843       23.2225486014
C         19.4937372738       20.2879766776       21.9090067901
H         18.7497602962       20.9844257423       21.4992403544
H         20.4270683597       20.8608682361       21.9997187830
C         19.6737824702       19.1367734634       20.8902465794
H         19.8598002733       19.5752311705       19.9000721528
H         18.7392504875       18.5654394208       20.8038845180
C         20.8370032850       18.1811598242       21.2278899403
H         20.6224237072       17.5933235836       22.1286684492
H         21.7690743055       18.7374576829       21.3925267814
H         21.0044081183       17.4743653695       20.4049777729
    16
VM2 Rank=10     G=-31.563           E=-42.084           -TS=10.521              
C         20.1756414268       19.3915342291       24.2179500693
O         21.2235947540       19.9536386022       24.4682547545
O         19.8435659608       18.3387334202       24.7263746004
C         19.1876283173       20.0900929922       23.2854755274
H         19.6067389435       21.0568625445       22.9810333733
H         18.2979096541       20.3099207374       23.8869939800
C         18.7614470032       19.2708424541       22.0348029584
H         18.5365702725       18.2349555359       22.3244751145
H         17.8188875463       19.6914451722       21.6591327851
C         19.7823740290       19.2875942296       20.8716214592
H         20.0059075054       20.3248315090       20.5863076408
H         19.3160519055       18.8198812472       19.9935085303
C         21.0957485090       18.5405640728       21.1835206308
H         21.7180312405       18.4655227029       20.2824652319
H         20.8946175769       17.5228683391       21.5429248896
H         21.6827247710       19.0661522879       21.9465515188
