   148
FE Rank=1      G=572.578           E=375.914           -TS=196.664              
C         16.3198265411       15.2851218299       20.5904038581
H         15.3219042435       15.0905422890       20.1772710006
O         16.4422945744       16.6351947020       21.0822397351
C         16.6036726357       14.3374345097       21.7851592771
H         16.5272662983       13.3069417491       21.4147337070
O         15.6408777990       14.5358927310       22.8333348867
H         15.4464254381       15.5062056654       22.8749177642
C         18.0404942860       14.5456737779       22.3252151554
H         18.0988978139       15.5463503466       22.7696483948
O         18.3314067496       13.5598545909       23.3212842009
H         17.5320902084       13.5334118312       23.8933389888
C         19.0752434065       14.4655255824       21.1773265700
H         19.1309164475       13.4255564900       20.8292191886
C         18.6895504043       15.3728491685       19.9785651921
H         18.7403667830       16.4201646481       20.2964388342
O         17.3328869678       15.0621931566       19.5823361084
C         19.6183552021       15.2364903049       18.7434582057
H         20.4394496499       15.9568391546       18.8470000645
H         19.0538179851       15.5268862557       17.8474261734
O         20.1578945240       13.9188922271       18.5793388560
H         20.8353650704       13.7913522699       19.2838574705
C         14.7016118739       20.3937542014       20.8864669856
H         14.0564148723       21.2655538777       20.7173813489
O         16.0242995999       20.7814260978       21.3065069744
C         14.1003297220       19.4512310964       21.9614146399
H         13.1370754026       19.0900674172       21.5782488994
O         13.8811063426       20.1398820554       23.2021965324
H         14.7329611109       20.5803843853       23.4524004052
C         15.0194599069       18.2238195994       22.1740287290
H         15.9641462631       18.5793037795       22.6029021620
O         14.3976505871       17.3031932268       23.0766955430
H         14.0500879338       17.8589464766       23.8092786825
C         15.3281449893       17.5145301236       20.8319790261
H         14.4295551310       16.9642011837       20.5238987565
C         15.7465215429       18.5079181337       19.7110875147
H         16.7565424651       18.8748838961       19.9369348726
O         14.8296193494       19.6306580104       19.6686414554
C         15.7884976009       17.8684983662       18.3022886366
H         16.6498687126       17.1901607136       18.2515269857
H         15.9571431707       18.6623921076       17.5625305793
O         14.5854727087       17.1511586626       17.9968300539
H         14.6726253811       16.7998846449       17.0840771153
C         18.4948093130       23.9462789087       22.1910004771
H         18.9665363032       24.9038170099       22.4467626029
O         19.4796047268       22.9547741676       21.8369953268
C         17.6676995036       23.4297176800       23.3935208609
H         16.8680986959       24.1579371500       23.5811252235
O         18.4812323999       23.3092529022       24.5692599192
H         19.1945379740       22.6566399855       24.3529311138
C         17.0161427542       22.0727058640       23.0543581887
H         17.8232964814       21.3479263337       22.9071310874
O         16.1845279641       21.6567482687       24.1418333065
H         16.7051724731       21.8630664513       24.9499639805
C         16.1968326568       22.1441090179       21.7439407073
H         15.2396784566       22.6399960747       21.9531382140
C         16.9527875544       22.8800312483       20.6009592968
H         17.7255956879       22.1937982044       20.2400343374
O         17.5925876831       24.0970847221       21.0720492010
C         16.0516967204       23.2306501824       19.3929095635
H         15.7775202137       22.2985423224       18.8803543333
H         16.6328048074       23.8338663270       18.6825018135
O         14.8676280232       23.9323838082       19.7912918489
H         14.3811319351       24.1830019321       18.9757222037
C         23.4649184522       22.6137016364       20.7146758546
H         24.4611619931       22.7520022600       20.2751864479
O         23.3299564996       21.3206453416       21.3385848006
C         23.1982656736       23.6841171110       21.8010474850
H         23.2957199334       24.6663313679       21.3206517401
O         24.1634982600       23.5779634245       22.8611555862
H         24.2603106892       22.6156895238       23.0744751909
C         21.7594370870       23.5738809626       22.3688627880
H         21.7017920241       22.6669678931       22.9839280088
O         21.5001978346       24.7252014500       23.1780754277
H         22.2535552629       24.7754401127       23.8060027987
C         20.6925332288       23.4610562390       21.2455723246
H         20.5452831786       24.4544553757       20.8022912490
C         21.1011017568       22.4609753138       20.1287253256
H         21.0665254367       21.4475547658       20.5438561201
O         22.4497557899       22.7498526538       19.6986933576
C         20.1789288283       22.4665879276       18.8815352677
H         19.3910900554       21.7183053160       19.0301189510
H         20.7628933979       22.1343163330       18.0128541620
O         19.5907713272       23.7468750835       18.6147792195
H         19.0108175538       23.9709113579       19.3784323282
C         25.1653798601       17.6020142783       21.4773584400
H         25.8578293569       16.7518884160       21.4285516503
O         23.8091648467       17.1800059105       21.7217277052
C         25.5675178209       18.5743218065       22.6150374192
H         26.5724680144       18.9533881523       22.3881758235
O         25.5908339393       17.9032809211       23.8853318801
H         24.7953106233       17.3141232394       23.9278777119
C         24.5985092487       19.7799334288       22.6571073047
H         23.6081662520       19.4030289866       22.9365225562
O         25.0477637303       20.7315756412       23.6277288733
H         25.2855849525       20.1968334672       24.4175438167
C         24.4826261909       20.4590724136       21.2713389563
H         25.4070251668       21.0238374523       21.0918029995
C         24.2525448478       19.4350867010       20.1233040951
H         23.2309486832       19.0424869144       20.2127987033
O         25.1949696312       18.3402476744       20.2381092783
C         24.3949085308       20.0419029083       18.7064246972
H         23.5223418196       20.6776496661       18.5078193305
H         24.3735495407       19.2250969675       17.9726803068
O         25.5982226612       20.8076736673       18.5632120469
H         25.6472626008       21.1127319941       17.6311179052
C         21.3211156505       13.9005377216       21.9127463362
H         20.8637027750       12.9044842273       21.9744680110
O         20.3333620859       14.9274417539       21.6982245134
C         22.0715564385       14.2119313495       23.2284999440
H         22.8712304843       13.4680964135       23.3395384916
O         21.1811499803       14.1223473323       24.3523378497
H         20.2603395796       14.1600266586       23.9946021471
C         22.7231478739       15.6104518612       23.1573924558
H         21.9196102939       16.3534643475       23.1099206238
O         23.5139049922       15.8302966405       24.3290863559
H         22.9433791818       15.5351714429       25.0736481936
C         23.5952307321       15.7652903587       21.8881002858
H         24.5334927701       15.2165279702       22.0431358953
C         22.8853582601       15.2570174647       20.6008231317
H         22.1070432461       15.9859860775       20.3431487653
O         22.2669195034       13.9626732175       20.8251943073
C         23.8306484022       15.1412652364       19.3813736308
H         24.1111405830       16.1530947685       19.0595430520
H         23.2799404933       14.6766427633       18.5524278818
O         25.0090334214       14.3838456439       19.6839162229
H         25.5361215005       14.3111452486       18.8585654246
C         19.4699904495       17.3296141011       24.9691015189
H         20.0430942991       16.6521895701       24.3257053977
H         18.9467725615       16.6885244493       25.6913146778
C         18.4066931386       18.0854292505       24.1444085006
H         17.5394943461       17.4258360823       24.0067690524
H         18.0206577839       18.9363156154       24.7194166818
C         18.8780940646       18.5445576461       22.7432535910
H         18.1747637371       19.2950168626       22.3665637271
H         18.7814330671       17.6978346976       22.0570709746
C         20.3256334492       19.0875743299       22.6036745752
H         21.0018678246       18.2485114432       22.4042553244
H         20.3652274686       19.7021072893       21.6981294387
C         20.9059579704       19.9139875521       23.7735600359
H         21.7516206618       20.4897885650       23.3767443538
C         21.4567465459       19.0315657340       24.9158330271
H         22.1718119290       18.3137597972       24.4971430675
H         22.0434404969       19.6724051126       25.5866039174
C         20.4112864866       18.2647226594       25.7641594857
H         20.9557852597       17.6580770075       26.5001593772
H         19.8154031245       18.9765106118       26.3509389441
O         19.9402151495       20.8149157531       24.2837710931
H         19.2433182990       20.2198342539       24.6217241800
