   143
FE Rank=1      G=494.785           E=312.454           -TS=182.331              
C         16.3883890164       15.6251944978       22.2536710946
H         15.3501756483       15.6194180261       22.6041956774
O         16.6406298129       16.6929428317       21.3176899841
C         17.3578148089       15.7915743003       23.4496670366
H         17.2196559201       14.9187363680       24.1004650735
O         17.0517841615       16.9794999001       24.2001276517
H         17.7663469396       17.6464116529       24.0224052849
C         18.8260257729       15.7901775502       22.9561846784
H         18.9755303837       16.6735257081       22.3226120934
O         19.7065393700       15.8433021717       24.0839786271
H         19.6701922056       16.7800238408       24.4074140794
C         19.1352698969       14.5436410817       22.0869673686
H         19.2413225138       13.6703355002       22.7440475834
C         18.0323394144       14.2808367784       21.0213773218
H         18.1274817223       15.0486281473       20.2425304413
O         16.7093316010       14.3721210458       21.6103040255
C         18.1686588031       12.9050887595       20.3261898728
H         19.0550954630       12.9300726788       19.6778502029
H         17.2948432285       12.7513102979       19.6789801043
O         18.2870508277       11.8314423297       21.2684096401
H         18.2960964015       10.9901481817       20.7616589982
C         14.9465970256       20.1950343651       20.0593913668
H         14.3935504039       21.0218413283       19.5954584730
O         16.1680400958       20.6487885577       20.6821761159
C         14.0853400681       19.4827748878       21.1280750497
H         13.2178095220       19.0550385073       20.6087032901
O         13.6194962544       20.4047940863       22.1257128397
H         14.4093220104       20.9004568639       22.4616676387
C         14.8661846819       18.3145911114       21.7817995879
H         15.6730511296       18.7416598029       22.3942204494
O         13.9521698728       17.5903687364       22.6118037881
H         13.5130823272       18.2728036619       23.1657472467
C         15.5110233341       17.3664065107       20.7244366739
H         14.7583844870       16.6490608614       20.3751473033
C         16.1203519774       18.1225727992       19.5096188829
H         17.0712004827       18.5491115808       19.8404414094
O         15.2650620388       19.2011315261       19.0657098910
C         16.4419396481       17.2103792139       18.3007165363
H         17.2817281665       16.5560581828       18.5687508570
H         16.7801961522       17.8435343392       17.4698551917
O         15.3199729984       16.4188115659       17.8899108365
H         15.1825536409       15.7224141064       18.5664994975
C         18.4350801054       24.0537084637       21.3990718082
H         18.8383377801       25.0700941874       21.4947294114
O         19.4671435602       23.0560872422       21.5452917940
C         17.3143509965       23.7895951610       22.4383865167
H         16.4901929340       24.4750115451       22.2010487563
O         17.7499059820       24.0513092853       23.7799185885
H         18.5324299254       23.4694459329       23.9529550092
C         16.7771540060       22.3431593135       22.2949926125
H         17.5852690521       21.6400978416       22.5432558608
O         15.6786250979       22.1618036627       23.1941242805
H         15.9841328918       22.5408723988       24.0484675003
C         16.3187072315       22.0751058065       20.8377490932
H         15.3710611798       22.6056010424       20.6756245163
C         17.3678240056       22.5440111229       19.7892501557
H         18.2205881774       21.8569995416       19.8319724374
O         17.8350649642       23.8823482441       20.0970740979
C         16.8355532766       22.5275637622       18.3364742094
H         16.7155746741       21.4816457332       18.0224716161
H         17.5916411136       22.9801793513       17.6811557713
O         15.5862588863       23.2192678767       18.2103903661
H         15.3409918902       23.2190160669       17.2595330018
C         23.3655447340       22.2743467241       22.6059507685
H         24.3997773348       22.2750461902       22.9720652174
O         23.0870521280       21.1054392707       21.8089759783
C         22.3844805210       22.3295053410       23.8030041048
H         22.5638009469       23.2849894626       24.3127179343
O         22.6196708949       21.2643329808       24.7401305407
H         22.3172046638       20.4062675984       24.3385973156
C         20.9192862886       22.3303376610       23.3129261697
H         20.7203859006       21.3696018246       22.8324941275
O         20.0498005113       22.4964983352       24.4361572580
H         20.3211489545       21.8011614513       25.0770527488
C         20.6652026784       23.4343217102       22.2551287852
H         20.5584477929       24.3997539735       22.7672176632
C         21.7932067813       23.5104854718       21.1849885864
H         21.6666609840       22.6502735146       20.5172337755
O         23.1108057604       23.4401658335       21.7922001538
C         21.7199617549       24.7825297558       20.3075181562
H         20.8356889414       24.7076707158       19.6599816657
H         22.6021021600       24.8096496728       19.6539241144
O         21.6450714041       25.9775118013       21.0950395271
H         21.6718686829       26.7422745567       20.4793601621
C         24.8460304718       17.7859894975       20.1847136258
H         25.4182758628       17.0123874503       19.6566769531
O         23.5902271445       17.2720715214       20.6831235929
C         25.6607020321       18.3854718209       21.3568614480
H         26.5278659998       18.8941639735       20.9156919829
O         26.1338248054       17.3718611467       22.2557717346
H         25.3359002219       16.9131923155       22.6222428733
C         24.8245450985       19.4493110605       22.1101779907
H         23.9971838533       18.9377604505       22.6234676929
O         25.6704690392       20.0916284556       23.0696128532
H         26.1089631958       19.3609259308       23.5581715501
C         24.2170642795       20.5060578026       21.1413209569
H         24.9878650950       21.2524275096       20.9127907531
C         23.6774136676       19.9023182765       19.8073399629
H         22.7111906843       19.4336617780       20.0081938641
O         24.5724392895       18.8869294515       19.2935750580
C         23.4220498756       20.9456576785       18.6906589941
H         22.4752694619       21.4580251637       18.8989662628
H         23.2886256754       20.4097203095       17.7414733767
O         24.4765540940       21.9078629735       18.5659325196
H         24.4300645080       22.5013487929       19.3463158239
C         21.4083889898       13.8422818996       21.4176871607
H         21.0099527730       12.8281986233       21.5504840490
O         20.3483665206       14.8233332029       21.3543741626
C         22.4072265399       14.2087232742       22.5458553149
H         23.2702957969       13.5391770553       22.4353208748
O         21.8489473130       14.0084889109       23.8518942472
H         21.0915651760       14.6393512602       23.9417898647
C         22.9166807886       15.6602348324       22.3583326791
H         22.0691000971       16.3503355915       22.4756246627
O         23.9080835251       15.9360003227       23.3523921795
H         23.4860091599       15.6999280160       24.2080738610
C         23.5171594150       15.8530247815       20.9383780575
H         24.5100663060       15.3845077551       20.9184152803
C         22.6255702701       15.2401565605       19.8174963503
H         21.7518555386       15.8867545402       19.6863517088
O         22.1588176669       13.9177293116       20.1868656090
C         23.3336808295       15.1530230272       18.4447305034
H         23.4514029707       16.1716116348       18.0502122811
H         22.6823022131       14.6073801264       17.7490002513
O         24.6139952937       14.5149347574       18.5352425782
H         24.9692119408       14.4298052925       17.6236256266
C         20.3783800863       18.8169330618       23.4756749208
O         21.4042088086       18.7772154120       24.1252083886
O         19.2698343655       18.6986536558       23.9651352764
C         20.5217312123       18.9931677865       22.0099693436
H         21.5414784043       18.9728055462       21.6499621883
C         19.4957241722       19.2073266541       21.1573699136
H         18.4702106550       19.2481159064       21.5227059033
C         19.6854652757       19.4479302686       19.6743831253
H         20.3972181722       20.2689758624       19.5219215649
H         18.7417911947       19.7742491721       19.2231928834
C         20.1846130150       18.1833357586       18.9511314369
H         21.1782184168       17.9229877232       19.3312815330
H         19.5223408462       17.3378552402       19.1809795072
C         20.2622285342       18.3872142771       17.4259450290
H         19.2746620682       18.6253462767       17.0104800014
H         20.9469397778       19.2074004069       17.1749185006
H         20.6277892791       17.4772111325       16.9332315806
