   146
FE Rank=1      G=500.820           E=312.438           -TS=188.382              
C         16.4982068616       15.3081489770       20.3046656819
H         15.4924567873       15.2463454829       19.8706969957
O         16.8092226107       16.6585996891       20.7124451546
C         16.6496086644       14.3246221948       21.4977589976
H         16.4853555102       13.3167914340       21.0948312921
O         15.6820248723       14.5672660081       22.5307608664
H         15.9025510916       15.4497923074       22.9225247230
C         18.0811674306       14.3640470386       22.0858007389
H         18.2125122873       15.3238405100       22.6018921341
O         18.2208090957       13.2829288742       23.0137835848
H         17.4810854003       13.3879189045       23.6502483088
C         19.1756422950       14.2620353701       20.9897840915
H         19.2940848381       13.2093721029       20.7037612833
C         18.8610412416       15.1103761807       19.7251195263
H         19.0121976448       16.1639833458       19.9823311454
O         17.4827285822       14.9146592990       19.3241830079
C         19.7836127650       14.8284827107       18.5114457363
H         20.6857161879       15.4446143237       18.6116241907
H         19.2726415293       15.1662837488       17.5999482035
O         20.1523814788       13.4492319262       18.3864023685
H         20.7476438203       13.2357613117       19.1383933424
C         15.0497257868       20.2547672258       21.8571950819
H         14.3567222199       21.0283216947       22.2123670345
O         16.2498218680       20.8344651748       21.3121980583
C         15.4349749617       19.3090719885       23.0269056147
H         14.5040056124       18.8758943439       23.4142143332
O         16.0816088850       20.0494961332       24.0769002817
H         16.0383529271       21.0051100649       23.8333412483
C         16.3331940400       18.1430178813       22.5374890052
H         17.3054304020       18.5684278827       22.2646593743
O         16.4969250276       17.1639350133       23.5740413260
H         17.4446397979       17.2239687975       23.8723891635
C         15.7458733598       17.4509006247       21.2804876823
H         14.8894426653       16.8355110106       21.5841286479
C         15.2889989075       18.4705651882       20.2030990164
H         16.1831927595       18.9542802468       19.7869926663
O         14.4351557615       19.4686882580       20.8154611702
C         14.5221498370       17.8312938920       19.0207320358
H         15.2367361885       17.2627348829       18.4103283675
H         14.1222852791       18.6357554445       18.3890059915
O         13.4641411140       16.9697270051       19.4601728454
H         12.9704229850       16.6741294075       18.6645164846
C         18.3535668010       24.2885686733       20.8423163153
H         18.7940740302       25.2734888580       20.6408782435
O         19.3679866168       23.2782293430       21.0370944345
C         17.3997127498       24.3294264506       22.0637996758
H         16.5375416681       24.9465173957       21.7784230487
O         18.0167180487       24.9159419187       23.2177557411
H         18.7791852268       24.3340198748       23.4627703556
C         16.8802701127       22.9037978226       22.3675094245
H         17.7371814446       22.2844903860       22.6682594797
O         15.9296266817       22.9568773895       23.4367083026
H         16.3051073096       23.5995752209       24.0802679403
C         16.2359266181       22.2605817647       21.1089072924
H         15.2132870819       22.6426832273       20.9933057807
C         17.0222008245       22.5222850630       19.7891925380
H         17.8690384105       21.8269545425       19.7498639654
O         17.5348199516       23.8784208396       19.7300071361
C         16.1658308719       22.2700022552       18.5260077669
H         15.9259565223       21.1991466830       18.4796871863
H         16.7701097732       22.5108195665       17.6416386597
O         14.9567609918       23.0408088478       18.5250963408
H         14.4849094339       22.8533128943       17.6848687196
C         23.3299732255       22.5382033659       21.9623765343
H         24.3889206977       22.5964656826       22.2455154285
O         22.9831331172       21.2284340238       21.4728548803
C         22.4380504650       22.8595300761       23.1843975338
H         22.6741558215       23.8843745959       23.4992150468
O         22.7012428409       21.9609221225       24.2742330813
H         23.4042694766       21.3349010637       23.9723600145
C         20.9431466521       22.8095474320       22.7983102644
H         20.6911367937       21.7769835823       22.5334537793
O         20.1727586044       23.2156588782       23.9313936823
H         20.5708751525       22.7224362470       24.6845723731
C         20.6420193438       23.6988804972       21.5641892724
H         20.6355793441       24.7523930630       21.8735970312
C         21.6725551074       23.4809412371       20.4183321708
H         21.4748688565       22.4981286567       19.9716417632
O         23.0313525193       23.4991095601       20.9276524466
C         21.5559349263       24.5277997644       19.2852115918
H         20.6165868793       24.3498553343       18.7439728037
H         22.3778823478       24.3689738562       18.5743443275
O         21.5807074433       25.8705362868       19.7860228120
H         21.5703726399       26.4767119782       19.0134226309
C         24.8843280976       17.5569070243       20.7985498976
H         25.5891733377       16.7722783264       20.4952429937
O         23.5987857759       17.0032456485       21.1413532220
C         25.4397685168       18.3877625452       21.9900047757
H         26.3579786193       18.8731284249       21.6342480042
O         25.7718306264       17.5695568875       23.1211218640
H         24.9271320774       17.1688647385       23.4483381254
C         24.4445382534       19.5068341996       22.3895633426
H         23.5218685726       19.0404029266       22.7640073563
O         25.0346858375       20.3165141821       23.4121172275
H         25.4635296524       19.6789039221       24.0266191385
C         24.0925839976       20.3708371107       21.1503802784
H         24.9777613056       20.9530000866       20.8625274497
C         23.6578012116       19.4974888637       19.9445926844
H         22.7050716809       19.0154651113       20.1945574442
O         24.6656873514       18.4804583834       19.7056518592
C         23.4194871736       20.3024296330       18.6418077393
H         22.4074432748       20.7247505687       18.6813166562
H         23.4448749780       19.6096201031       17.7903045721
O         24.3684053789       21.3597086226       18.4523750604
H         24.1719718030       22.0492107158       19.1249096004
C         21.2790793165       13.8696509900       22.1847448804
H         20.7584551793       12.9539786849       22.4928431364
O         20.3867330677       14.8048302722       21.5455972751
C         21.9338653449       14.5485961311       23.4112573498
H         22.7194801807       13.8741045688       23.7748874031
O         20.9763501224       14.7541154772       24.4642230491
H         20.4035073436       15.5311180572       24.2261574769
C         22.6037298115       15.8735864003       22.9833287978
H         21.8020052116       16.5507001837       22.6778033585
O         23.3122308700       16.4556820910       24.0822134379
H         22.6055955878       16.8811858813       24.6396195431
C         23.5494799605       15.7028158576       21.7645962363
H         24.5338676745       15.3705159931       22.1189203016
C         23.0070134224       14.7282497039       20.6750158608
H         22.2753249337       15.2854525056       20.0787555713
O         22.3430267758       13.5739366857       21.2553569759
C         24.0952471634       14.2322631560       19.6939576855
H         24.4141468489       15.0785527387       19.0707197852
H         23.6491256047       13.4844807689       19.0245922146
O         25.2260319637       13.6776998694       20.3769893897
H         25.8381359117       13.3182521966       19.6980704987
C         18.3823090340       20.0752372135       17.2697553138
H         17.6565784708       19.2639592372       17.2823355448
H         18.2352862253       20.8685147462       16.5394449749
C         19.4187888630       20.0968013495       18.1112058656
H         20.1317330820       20.9193756036       18.0828628573
C         19.6872013206       19.0266113848       19.1447460708
H         20.6429581295       18.5356543545       18.9212213901
H         18.9106232961       18.2526593062       19.0929834954
C         19.7358212978       19.6068569946       20.5737024987
H         20.5026114191       20.3886423293       20.6300157913
H         18.7759864052       20.0804594323       20.8107204778
C         20.0316302174       18.5113171810       21.6173337063
H         20.9911256834       18.0379822989       21.3841376436
H         19.2699221039       17.7260212524       21.5447709002
C         20.0581776561       19.0599730428       23.0682537313
H         20.9312787097       19.7076525689       23.2033496501
H         19.1665119086       19.6654601153       23.2678120086
C         20.1159525082       17.9693892777       24.1346229144
O         19.2825786442       17.0828248234       24.0994614655
O         21.0785023565       17.9475761885       24.8768422575
