   143
FE Rank=1      G=497.819           E=314.123           -TS=183.697              
C         16.1459263098       15.0936063044       20.8254684994
H         15.0973683319       14.9168021046       20.5539467260
O         16.3991210043       16.4824338172       21.1125603616
C         16.5330701001       14.2653173825       22.0767302541
H         16.3948734761       13.2058552102       21.8247116998
O         15.6958565677       14.5938433828       23.1968710848
H         15.5928644817       15.5794384789       23.2125849427
C         18.0247202021       14.4787450807       22.4298583131
H         18.1586399682       15.5246985082       22.7365693637
O         18.3935027791       13.6056474745       23.5040820466
H         17.6684394894       13.6917979491       24.1621390210
C         18.9324417309       14.2108110282       21.2048874568
H         18.9603084354       13.1265829352       21.0347571466
C         18.4254648190       14.9362077064       19.9240348797
H         18.5926324740       16.0140865178       20.0495425694
O         17.0091117297       14.6880140490       19.7450765651
C         19.1342754792       14.4933712261       18.6211259776
H         20.1403444934       14.9277021415       18.6001644343
H         18.5873135350       14.9152345157       17.7673522406
O         19.2144595203       13.0667164903       18.5037397619
H         19.6426576102       12.8629940319       17.6442086353
C         14.7550421101       20.2628188141       20.9501806526
H         14.1289704351       21.1585677974       20.8501717043
O         16.1596446350       20.6063709800       20.9926065654
C         14.3586124311       19.4415648204       22.2066637611
H         13.3375468222       19.0746808631       22.0387179933
O         14.3641476433       20.2297619774       23.4054245809
H         15.3070102806       20.4809611349       23.5742769204
C         15.2843953424       18.2102175643       22.3436817447
H         16.3117278498       18.5611399563       22.5096018310
O         14.8582463261       17.4127207061       23.4533279293
H         14.6877733707       18.0537454227       24.1789888673
C         15.2604647393       17.3630860733       21.0477061736
H         14.3129268201       16.8089618340       21.0268399286
C         15.3951600426       18.2177865006       19.7520984947
H         16.4361479963       18.5463567928       19.6579574935
O         14.5440901902       19.3910705090       19.8185054384
C         15.0514333412       17.4327702597       18.4638573349
H         15.8423329247       16.6912998096       18.2874847464
H         15.0633668000       18.1299021811       17.6154103049
O         13.7802568436       16.7759377089       18.5526030503
H         13.6100523898       16.3399827513       17.6892997312
C         18.7518022185       23.7221713460       21.9882908183
H         19.1900926842       24.6568773427       22.3559709362
O         19.6770460657       22.9765744710       21.1710396935
C         18.3153043272       22.8294650329       23.1794167552
H         17.5577177180       23.3891709332       23.7426675363
O         19.4320124611       22.5669738471       24.0459626250
H         19.4401434765       21.5992835794       24.2635987988
C         17.6514827544       21.5226144507       22.6724746965
H         18.4133784226       20.9249751519       22.1552273422
O         17.1232855111       20.7898985211       23.7847379939
H         17.9052655104       20.3761478658       24.2362227386
C         16.5102145380       21.8356945891       21.6671658962
H         15.6603928363       22.2511631321       22.2244739105
C         16.9503540309       22.8488410452       20.5747200376
H         17.6711277327       22.3475094442       19.9156355842
O         17.5820189940       24.0006088470       21.1887238947
C         15.7836679084       23.3468830540       19.6879201821
H         15.4598004111       22.5189573429       19.0427207634
H         16.1584534762       24.1440413226       19.0320771650
O         14.6750192820       23.8196361791       20.4640620457
H         14.0128756124       24.1917327435       19.8415079908
C         23.6874409782       22.7109656263       20.5083223923
H         24.7423866913       22.7497774691       20.2077786049
O         23.3390128904       21.4287273084       21.0687400737
C         23.3492139423       23.8252732206       21.5273134585
H         23.4974331919       24.7833143291       21.0120145367
O         24.2139083849       23.7793172474       22.6726014276
H         24.0574596653       22.9081263790       23.1177674934
C         21.8632272410       23.7468237148       21.9597007408
H         21.7358217751       22.8497048976       22.5822681823
O         21.5694493183       24.9211736526       22.7244216637
H         22.2644731147       24.9595559451       23.4172139229
C         20.8893993066       23.6336531393       20.7456801355
H         20.6799765244       24.6386402876       20.3595443843
C         21.4242963435       22.7331952203       19.5947783662
H         21.2708419573       21.6903337244       19.8971948922
O         22.8387834456       22.9437949680       19.3673264577
C         20.6689853503       22.9203022677       18.2561804280
H         19.6459664961       22.5391764205       18.3749440408
H         21.1579445317       22.3000573705       17.4933397654
O         20.6321995318       24.2873383183       17.8269339912
H         20.0047960613       24.7664308528       18.4089283338
C         24.7626879512       17.8644726386       22.5422437489
H         25.3410884307       17.0282441372       22.9557110317
O         23.4471001160       17.4354041361       22.1360542784
C         24.6515858289       18.9928845432       23.5979608688
H         25.6707458937       19.3569261783       23.7812930267
O         24.1132474086       18.5078502219       24.8363962355
H         23.1330972755       18.3865795584       24.7054151564
C         23.8213762822       20.1752884045       23.0495947255
H         22.7925330644       19.8295180238       22.8841308097
O         23.8235038393       21.2423924744       24.0036662809
H         23.4733188254       20.8416752337       24.8310043658
C         24.3899135245       20.6699030211       21.6959719639
H         25.2851595783       21.2768100638       21.8858317329
C         24.7221370458       19.5072609741       20.7182949038
H         23.7649635280       19.1310892263       20.3439484540
O         25.4227610117       18.4219729552       21.3839341326
C         25.5519677458       19.9519045981       19.4899308514
H         24.9140937688       20.5700116785       18.8436497959
H         25.8336900845       19.0614911269       18.9121236315
O         26.7203312449       20.6896191010       19.8686884527
H         27.2375836337       20.8686040798       19.0531991358
C         21.3716215465       13.9590803498       21.1341022288
H         21.0787865908       12.9671564307       20.7667782039
O         20.2294953707       14.7285741656       21.5590808235
C         22.3057830946       13.8225374004       22.3603483045
H         23.1701353150       13.2226249024       22.0472160492
O         21.6212580556       13.1496063295       23.4303291194
H         20.6974932191       13.5029477612       23.4419268575
C         22.8310633374       15.2010925579       22.8412332329
H         22.0011934107       15.7397829808       23.3174616941
O         23.8759962815       14.9775569125       23.7933810899
H         23.4929996739       14.3681155469       24.4612531016
C         23.3572970784       16.0729304660       21.6682299013
H         24.3372763947       15.6855501569       21.3604470318
C         22.4027745762       16.0562570352       20.4410649098
H         21.4805344326       16.5850384242       20.7058207204
O         22.0852211797       14.6860465717       20.1137620868
C         22.9624926262       16.7368725704       19.1657409278
H         22.6652591745       17.7923682958       19.1768951489
H         22.4762240476       16.2892970415       18.2888010236
O         24.3868161428       16.6257466500       19.0433862325
H         24.7880178240       17.1003933830       19.8073723830
C         20.2582575175       18.8901860141       24.2132811117
O         19.5722824718       19.8127210356       24.6120409461
O         21.3529543308       18.6122929059       24.6618081110
C         19.7201840593       18.0395518089       23.0724064964
H         18.6303403333       17.9787008202       23.1708391611
H         20.1125566552       17.0267749219       23.2078626457
C         20.1205449114       18.5682163745       21.7094453900
H         21.1806583299       18.7754944117       21.5781915378
C         19.2578894713       18.7839142716       20.7148290216
H         18.2013093773       18.5829905828       20.8645867211
C         19.6380312757       19.2999414606       19.3465918190
H         19.0350633163       20.1863401397       19.1100831017
H         20.6903425619       19.6105663985       19.3337142929
C         19.4184168220       18.2267829562       18.2637831685
H         18.3714577059       17.8990510126       18.2416232343
H         19.6741915650       18.6196601015       17.2715025088
H         20.0493459924       17.3511910790       18.4553219791
