   142
FE Rank=1      G=489.584           E=304.851           -TS=184.732              
C         16.4268376096       15.5221937151       22.2637687512
H         15.3786713923       15.5140090940       22.5868144082
O         16.7637922640       16.7507091732       21.5846106824
C         17.3594995957       15.3547984033       23.4900243978
H         17.1590948572       14.3659178470       23.9218131971
O         17.0746174250       16.3578652841       24.4793882402
H         17.9217268078       16.8232263431       24.6992432651
C         18.8408895787       15.3835683789       23.0397723247
H         19.0402777920       16.3650545198       22.6052344694
O         19.7091779864       15.1689730289       24.1592384117
H         19.7346225184       16.0318208054       24.6526803322
C         19.1182619437       14.3411019203       21.9273938662
H         19.1783624598       13.3422721707       22.3794294113
C         18.0353987114       14.3677205675       20.8087830061
H         18.2053772073       15.2709155648       20.2112195295
O         16.6942779958       14.4232826114       21.3640339892
C         18.1208157706       13.1614867884       19.8437789422
H         19.0311446680       13.2650201762       19.2377107454
H         17.2651124430       13.1999997358       19.1564332526
O         18.1430959126       11.9111435649       20.5436828244
H         18.1243434984       11.1938469667       19.8730312630
C         15.0084789130       20.2442320687       20.1809857008
H         14.3959997953       20.9987613164       19.6706819146
O         16.1856892763       20.8275727724       20.7749389480
C         14.2016418036       19.5421072371       21.3016553731
H         13.3324258764       19.0715472183       20.8239930241
O         13.7402148685       20.4899395316       22.2783709640
H         14.5189361619       21.0394588066       22.5497555225
C         15.0291658045       18.4199320166       21.9827437131
H         15.8301213147       18.8897079044       22.5706896693
O         14.1535273049       17.6855945836       22.8441069072
H         13.7021123686       18.3638521543       23.3926373834
C         15.6889612388       17.4676777127       20.9439299648
H         14.9261389095       16.7829679740       20.5523610597
C         16.3433147178       18.2427483621       19.7669012711
H         17.2266096494       18.7601178169       20.1564983129
O         15.4196824034       19.2258293881       19.2445704877
C         16.8293604913       17.3433399365       18.6014687527
H         17.8250701179       16.9575767639       18.8526199753
H         16.9495161362       17.9666505689       17.7054677111
O         15.9441623945       16.2496954782       18.3275075290
H         15.9590448469       15.6581566997       19.1114480038
C         18.3832528744       24.2699113892       21.1568275732
H         18.8181884593       25.2770690720       21.1900283149
O         19.4057501891       23.2498313406       21.2461733812
C         17.3241312203       24.0757283202       22.2735722417
H         16.4881994353       24.7487071818       22.0416936777
O         17.8297118820       24.4152197141       23.5721274463
H         18.5532741376       23.7708195415       23.7750448629
C         16.7830411780       22.6260542317       22.2381322546
H         17.6090551098       21.9425926642       22.4753063149
O         15.7398379677       22.4783283024       23.2075002407
H         16.0842853361       22.9078119174       24.0219703083
C         16.2412176970       22.2672163543       20.8303357043
H         15.2450991007       22.7174635113       20.7272411438
C         17.1643047667       22.7456980143       19.6671280314
H         18.0162407068       22.0609696881       19.6001251003
O         17.6732647852       24.0824517673       19.9136314080
C         16.4700367903       22.7305186393       18.2843693840
H         16.3229320269       21.6852155730       17.9805236639
H         17.1441259973       23.1909926942       17.5497549170
O         15.2103334070       23.4141809754       18.3022772278
H         14.8653788731       23.4264582545       17.3827499708
C         23.2716194864       22.3985008230       22.4881320990
H         24.2807826632       22.4112646426       22.9151901910
O         23.0709364540       21.2669855293       21.6137434793
C         22.2128064539       22.3423819352       23.6195061092
H         22.3377650809       23.2454546093       24.2304696468
O         22.4320012176       21.1861926007       24.4464730092
H         21.5551942979       20.8331602133       24.7433610377
C         20.7795575800       22.3677086532       23.0292670274
H         20.6293323755       21.4399750015       22.4680984129
O         19.8220782915       22.4700725606       24.0911437730
H         19.8077348698       21.5911290977       24.5536197908
C         20.5817754732       23.5436718570       22.0353651071
H         20.4708721716       24.4745573014       22.6069236288
C         21.7639058195       23.6762276884       21.0339349430
H         21.6980161821       22.8439201994       20.3215814547
O         23.0357307980       23.6036327683       21.7273198989
C         21.7256050886       24.9861798635       20.2108936505
H         20.8868055774       24.9272762526       19.5040553255
H         22.6476848989       25.0546364852       19.6183263150
O         21.5791312640       26.1450821578       21.0416902950
H         21.6357631036       26.9359679964       20.4621496761
C         24.9482215777       17.6801225717       20.6765864214
H         25.6193870995       16.8982465698       20.2987959344
O         23.6974168514       17.1307184459       21.1399044719
C         25.6041706635       18.4288574770       21.8607798721
H         26.5432483270       18.8579122469       21.4876769680
O         25.9007431626       17.5220917428       22.9361048401
H         25.1200682474       16.9210420860       23.0398599217
C         24.7207172467       19.6012250490       22.3635583583
H         23.8374677086       19.1809138935       22.8649412960
O         25.5038365915       20.3574657259       23.2930398553
H         25.8305332962       19.7011411358       23.9464964452
C         24.2288047031       20.5102984965       21.1969575098
H         25.0458396360       21.1743137716       20.8889262328
C         23.7395374371       19.6855530424       19.9750946314
H         22.7901085529       19.2165315701       20.2518373478
O         24.6902951194       18.6492148205       19.6404450762
C         23.4696439366       20.5389644002       18.7110739960
H         22.5554958112       21.1246705265       18.8729293488
H         23.2727789184       19.8614750236       17.8697726653
O         24.5560301975       21.4175467280       18.3924205574
H         24.5745829850       22.1217560165       19.0751177866
C         21.3704782709       13.7184770415       21.1208426847
H         20.9280335994       12.7177193252       21.0345218733
O         20.3570019500       14.7322141883       21.2964206375
C         22.3934719118       13.7858658955       22.2857378034
H         23.2186958732       13.1095683369       22.0270535186
O         21.8238090856       13.3551625216       23.5300629744
H         21.0810105324       13.9761249487       23.7389305578
C         22.9761099925       15.2159775620       22.4037202830
H         22.1642737047       15.8933418531       22.6956051156
O         24.0024529107       15.2359050301       23.4015482620
H         23.6273577243       14.7434059760       24.1651663669
C         23.5578511913       15.6967885466       21.0492290273
H         24.5263176802       15.1997091172       20.9068419753
C         22.6291147775       15.3876770690       19.8384678779
H         21.7885577801       16.0896822576       19.8652861024
O         22.1066817592       14.0364750839       19.9207381479
C         23.3260565007       15.5611172350       18.4677860927
H         23.4968045263       16.6324399742       18.2969248921
H         22.6438071729       15.2112214652       17.6816042152
O         24.5706594681       14.8529933170       18.3992812870
H         24.9291008919       14.9693957637       17.4924544490
C         19.5876359965       18.9048009953       24.5297544383
O         20.0084344049       19.8908491395       25.1060432882
O         19.4231463831       17.8164722265       25.0508888318
C         19.2760374616       19.0320268469       23.0448317788
H         18.9743822138       20.0627130204       22.8427656337
H         18.3962568818       18.4185855902       22.8317571718
C         20.4728184542       18.6131010194       22.1479758884
H         21.3078194735       19.3101730472       22.2878330064
H         20.8444705653       17.6389653683       22.4836332014
C         20.1052557871       18.5126636889       20.6526317666
H         19.2687856311       17.8142714112       20.5315964534
H         20.9449305773       18.0797097976       20.0998145704
C         19.7564088387       19.8799804537       20.0354125749
H         18.8917404774       20.3199957057       20.5421018643
H         19.5141474761       19.7781994855       18.9702768929
H         20.5945214941       20.5799429744       20.1332496828
