   151
FE Rank=1      G=514.375           E=317.646           -TS=196.729              
C         16.2858118941       15.2989489719       20.5831692011
H         15.2387030393       15.2021220429       20.2693301321
O         16.6120508909       16.6697339015       20.9011617366
C         16.6011433869       14.3659009640       21.7884303030
H         16.4408149297       13.3365262368       21.4423158244
O         15.7421072464       14.6062076434       22.9123686510
H         15.9668623446       15.5088306279       23.2528011944
C         18.0867422377       14.4961544741       22.2025869704
H         18.2523268101       15.5144100486       22.5786720702
O         18.3897507247       13.5432068272       23.2270209114
H         17.6379127983       13.5961011151       23.8581286291
C         19.0169432519       14.2736757058       20.9867819262
H         18.9980058736       13.2079928515       20.7238348979
C         18.5815651664       15.1153363268       19.7571114247
H         18.7431616385       16.1706266109       19.9992613725
O         17.1681150699       14.8982109054       19.5075212660
C         19.3836924335       14.8360929623       18.4598165565
H         20.2688285449       15.4856693282       18.4549015933
H         18.7687163684       15.1292707957       17.5985915027
O         19.7973982332       13.4710160406       18.3308309476
H         20.6186579718       13.3731273366       18.8647957006
C         15.1960585728       20.3377240032       22.1328812417
H         14.6300896025       21.1860320968       22.5369167203
O         16.3617259409       20.7808347571       21.4066497789
C         15.6341886182       19.4042432104       23.2917509572
H         14.7211713039       19.0534102813       23.7896803438
O         16.4322119321       20.1374421010       24.2370110622
H         16.9322433122       19.4963633592       24.8027897414
C         16.3856312789       18.1597719376       22.7563826149
H         17.3577669023       18.4901319074       22.3713919193
O         16.5651942592       17.2073503028       23.8141913897
H         17.1792435827       17.6138932362       24.4791275213
C         15.6293147740       17.4711741725       21.5893231298
H         14.8126070684       16.8650583178       22.0016987167
C         15.0595692430       18.4777586844       20.5519754322
H         15.9044860824       18.8760281577       19.9768133368
O         14.3804400706       19.5694404741       21.2229016019
C         14.0817171270       17.8377713574       19.5376032342
H         14.6575236942       17.1948761678       18.8582624244
H         13.6357411935       18.6365885850       18.9300560091
O         13.0570108101       17.0696135481       20.1807286876
H         12.4329871800       16.7641460171       19.4866431989
C         18.4647967280       24.0646518653       20.3336564392
H         18.9403936894       24.9775461030       19.9527370626
O         19.4412347747       23.1212330478       20.8273817945
C         17.4303685914       24.3850585271       21.4400419421
H         16.6249900980       24.9604545872       20.9649791682
O         17.9977297711       25.1763862376       22.4941765857
H         18.6895198757       24.6172180078       22.9294223150
C         16.8100031552       23.0811852829       22.0003014695
H         17.5844061466       22.5543386613       22.5760459472
O         15.7213451513       23.4338284006       22.8607353991
H         16.0881131318       24.0964068020       23.4858183592
C         16.3132798503       22.1219956326       20.8773457187
H         15.2903204111       22.4038888489       20.5997372715
C         17.2069216457       22.1050781213       19.5996627209
H         18.0616448162       21.4500057376       19.7973272318
O         17.7149298287       23.4237471720       19.2834497208
C         16.4966714702       21.5370743858       18.3455026552
H         16.3795218421       20.4530351108       18.4680856089
H         17.1523773962       21.6920644631       17.4783535314
O         15.2193715951       22.1404342842       18.1035928089
H         14.5920346908       21.7903351189       18.7715024277
C         23.3195341165       22.6602092381       22.1838627677
H         24.3455330982       22.7899519616       22.5522791848
O         23.0409593080       21.2847723738       21.8672730455
C         22.3133418844       23.1154345778       23.2651102953
H         22.4960323102       24.1805560013       23.4580748608
O         22.5093646504       22.3744728284       24.4801410334
H         23.0504066014       21.5810894942       24.2476941405
C         20.8590885720       22.9630852176       22.7632975798
H         20.6450268871       21.8932195169       22.6434611754
O         19.9794115415       23.5241053840       23.7415938364
H         20.2723892430       23.1293680933       24.5937597502
C         20.6586131979       23.6515037823       21.3876266336
H         20.6069865081       24.7382701680       21.5359835118
C         21.7911351311       23.3032830115       20.3794210429
H         21.6530508614       22.2588476464       20.0758351216
O         23.0985040398       23.4462452833       20.9938515299
C         21.7552052136       24.1587250224       19.0909343451
H         20.8777698796       23.8610715320       18.5007073536
H         22.6456051591       23.9275922124       18.4908238176
O         21.6954709278       25.5617063248       19.3766218314
H         21.7524560283       26.0426626634       18.5223619730
C         25.0258987849       17.6534584827       21.3636973636
H         25.7622516969       16.8685574208       21.1488630184
O         23.7112091056       17.1126343526       21.5916263601
C         25.4180940782       18.4523376272       22.6348626365
H         26.3896202747       18.9246985287       22.4399444569
O         25.5378106064       17.5875491079       23.7752961370
H         24.7722989654       16.9584917494       23.7518036027
C         24.3871284892       19.5767896531       22.9101663352
H         23.4226872720       19.1113383181       23.1579298119
O         24.8319327492       20.3813075024       24.0069807972
H         25.1379082303       19.7387107356       24.6855799273
C         24.1938343406       20.4548271890       21.6494398972
H         25.1035515132       21.0482176043       21.4885679983
C         23.9181260857       19.6021818854       20.3841207804
H         22.9447335758       19.1166635982       20.5105361605
O         24.9452616160       18.5878862230       20.2629423033
C         23.8510437783       20.4153406546       19.0653893477
H         22.8164608439       20.7450946476       18.9179448432
H         24.0925254291       19.7476702911       18.2277609177
O         24.7188446002       21.5562150580       19.0564968438
H         24.3375500783       22.2164946382       19.6801525634
C         21.3670504389       13.7235773201       21.3609836982
H         20.9627267802       12.7067826252       21.2777880765
O         20.3248656792       14.7159193091       21.3867806522
C         22.1811192407       13.8604382476       22.6692716434
H         23.0176639471       13.1515187393       22.6173180164
O         21.3644647117       13.5494489082       23.8098268413
H         20.4309207605       13.7759088280       23.5702732470
C         22.7662955068       15.2848005340       22.7947948930
H         21.9299971464       15.9854423388       22.9155633835
O         23.6179714797       15.3482955007       23.9427616925
H         23.1106471023       14.9013634560       24.6567914445
C         23.5537263931       15.6847006978       21.5226109833
H         24.5177046710       15.1592980334       21.5254118857
C         22.7731187171       15.3694540690       20.2138923614
H         21.9414820116       16.0821207655       20.1369188656
O         22.2382498137       14.0196513028       20.2495413186
C         23.6294035648       15.5251056625       18.9350262328
H         23.8347247256       16.5930943080       18.7815852687
H         23.0413876592       15.1791246728       18.0744652412
O         24.8628859128       14.8002554391       19.0207106610
H         25.3325674967       14.9099026963       18.1655452308
C         19.4651685544       18.4219359675       25.5739905616
O         20.2120879412       18.7406839284       26.4775700153
O         18.2501617481       18.4818623734       25.6371799348
C         20.0743669458       17.9085271462       24.2743482653
H         19.4939393311       17.0307782905       23.9691312307
H         21.0964512343       17.5663495976       24.4743324231
C         20.0764361900       18.9747652107       23.1508838787
H         19.1298908077       19.5307544796       23.1744844882
H         20.8696634698       19.7079863711       23.3471060948
C         20.2693847306       18.3434666809       21.7558039346
H         19.5653700190       17.5119667697       21.6299606288
H         21.2772256934       17.9233592840       21.6831919776
C         20.0396748008       19.3716561438       20.6308553428
H         19.0041040254       19.7266712599       20.6910834713
H         20.6869901614       20.2420631128       20.7930717156
C         20.3027892132       18.7804089222       19.2288934201
H         19.6411897601       17.9239857873       19.0599030879
H         21.3303099660       18.4014479459       19.1715445460
C         20.0669118384       19.8166519142       18.1119452967
H         19.0035400197       20.0821455545       18.0809613801
H         20.6174146463       20.7412178598       18.3276037291
C         20.4947123997       19.2703918387       16.7359394447
H         19.9339721230       18.3609800345       16.4836940731
H         20.3075744881       20.0134168307       15.9500835990
H         21.5651928317       19.0277057843       16.7250229249
