   146
FE Rank=1      G=534.374           E=340.922           -TS=193.453              
C         16.2771024162       15.2715708511       20.4693733548
H         15.2705341910       15.0793045528       20.0762129326
O         16.3951162964       16.5983581642       21.0220025321
C         16.6200123122       14.2705844115       21.6018412966
H         16.5669929373       13.2600527721       21.1761891158
O         15.6776044014       14.3798350697       22.6814686517
H         15.4944474110       15.3435479780       22.8186124109
C         18.0623441974       14.4965292217       22.1214220621
H         18.0886134892       15.4733021373       22.6181229287
O         18.3809798746       13.4725148461       23.0703134921
H         17.5626885401       13.3638756553       23.6065382842
C         19.0819807419       14.5135768794       20.9462264693
H         19.2006689269       13.4931031373       20.5598409674
C         18.6191330100       15.4436811735       19.7934611990
H         18.6550435197       16.4797483578       20.1517917154
O         17.2600255904       15.1180589013       19.4230946890
C         19.5153921919       15.3720275879       18.5315512718
H         20.4337517541       15.9421203782       18.7237976924
H         18.9940192837       15.8704692719       17.7036260511
O         19.8534372966       14.0292322780       18.1642040379
H         20.4795358535       13.6893176624       18.8396299508
C         14.6058163241       20.3060097723       21.1305227483
H         13.9558735389       21.1884071742       21.0688715417
O         15.9754362642       20.6638284262       21.4138048872
C         14.1184455543       19.3309418946       22.2320727479
H         13.1211163109       18.9766273142       21.9404196305
O         14.0293664186       19.9808482540       23.5092814146
H         14.8822794481       20.4619952371       23.6605491536
C         15.0582725684       18.1042304806       22.3073639545
H         16.0416095410       18.4522387515       22.6447198797
O         14.5414192333       17.1515360826       23.2421275609
H         14.2606740846       17.6833645744       24.0201168233
C         15.2281922957       17.4367598976       20.9201956519
H         14.3197693704       16.8566115435       20.7112019334
C         15.4805431584       18.4578468620       19.7727677185
H         16.5102699929       18.8243317310       19.8593051705
O         14.5745833152       19.5833475369       19.8824341227
C         15.3273691357       17.8485482907       18.3582829523
H         16.1750665767       17.1759369117       18.1729195985
H         15.3885397679       18.6588970901       17.6196074692
O         14.0957415759       17.1308650537       18.2085485027
H         14.0455170515       16.8167821747       17.2794239472
C         18.5170163270       23.8569767223       22.0542935625
H         18.9803758619       24.8331422008       22.2487022882
O         19.4985793862       22.8677493182       21.6940215269
C         17.7785748207       23.3639502678       23.3203990804
H         16.9941399906       24.0965358650       23.5511203667
O         18.6847588441       23.2698850858       24.4322201780
H         19.5731111740       23.5539824431       24.1064515836
C         17.1048020156       21.9978188924       23.0575151398
H         17.8944530912       21.2564933465       22.8957818712
O         16.3314234960       21.6264066147       24.2010359374
H         16.8977871219       21.8606003510       24.9704782726
C         16.2169495097       22.0346992523       21.7891811754
H         15.2889104296       22.5704029038       22.0292169137
C         16.9267282718       22.7081318803       20.5801309507
H         17.6947175038       22.0137087300       20.2186038459
O         17.5634546940       23.9509715722       20.9753812521
C         15.9762265007       22.9990502969       19.3943242884
H         15.6844252763       22.0430983350       18.9385930079
H         16.5266179443       23.5686525167       18.6334182876
O         14.8064128985       23.7169423648       19.8063358319
H         14.2823557891       23.9196718016       19.0008677482
C         23.5359947787       22.6409960176       20.6969321097
H         24.5415231531       22.8339826034       20.3011347688
O         23.4052397980       21.2958202272       21.2012477967
C         23.2037127929       23.6091028578       21.8638044696
H         23.2509936660       24.6323075834       21.4689917555
O         24.1510695273       23.4710015712       22.9351563507
H         24.2703850241       22.5021529553       23.1051970726
C         21.7650664251       23.3588977464       22.3809871560
H         21.7434313708       22.3590686523       22.8309292865
O         21.4206456483       24.3369617893       23.3679584525
H         22.2199827740       24.4187997434       23.9353645029
C         20.7475156507       23.3911125316       21.2124277153
H         20.6484915604       24.4251193409       20.8560839722
C         21.1893585617       22.4909837655       20.0302239559
H         21.1610173763       21.4488031732       20.3656236752
O         22.5459026236       22.8324051865       19.6604837658
C         20.2777081421       22.5847820805       18.7786891914
H         19.4806517152       21.8368708474       18.8759367893
H         20.8660841445       22.3075422845       17.8938670005
O         19.6950668463       23.8819330727       18.5971353776
H         19.0544779429       24.0229912405       19.3318636224
C         25.2507942319       17.6286177409       21.3818730396
H         25.9118908335       16.7525023805       21.3645862483
O         23.8591359525       17.2466282038       21.4505006146
C         25.5853388478       18.5649053745       22.5721548282
H         26.5963186772       18.9576428610       22.4016463996
O         25.5683678232       17.8690139818       23.8264587768
H         24.6676816512       17.4706279547       23.9296417909
C         24.6075057689       19.7641380621       22.5896895866
H         23.5967775904       19.3811726300       22.7843146418
O         24.9806198896       20.6782014640       23.6258620697
H         25.1808354398       20.1133022603       24.4053973183
C         24.6025293550       20.4969136757       21.2239412818
H         25.5090027850       21.1140275349       21.1671881747
C         24.5376649850       19.5306542933       20.0037565362
H         23.5133904735       19.1468535952       19.9247737321
O         25.4402478727       18.4101711565       20.1836816599
C         24.8708347492       20.2152217247       18.6562856315
H         24.0412882842       20.8837331269       18.3895837640
H         24.9301449727       19.4436841159       17.8769752214
O         26.0945158786       20.9591080329       18.7148084542
H         26.2750290124       21.3065932972       17.8140661007
C         21.2294180819       14.1243726510       22.0540024382
H         20.7332868128       13.1711416413       22.2751978070
O         20.3394724365       15.0503169867       21.3993550536
C         21.7346972511       14.7831758456       23.3602322045
H         22.4456271195       14.0866302804       23.8237667360
O         20.6482296185       15.0389353378       24.2693990399
H         19.9401558356       14.3830203694       24.0544894115
C         22.4728058453       16.1040354756       23.0477186151
H         21.7314921057       16.8078119391       22.6567408125
O         23.0346321357       16.6151839830       24.2590762538
H         22.4371844521       16.2954907274       24.9693697925
C         23.5664954331       15.9301441480       21.9640494900
H         24.4456185078       15.4586523201       22.4230927511
C         23.0750282304       15.0874013247       20.7524591287
H         22.3857811077       15.7076941838       20.1655873693
O         22.3705471578       13.9019735913       21.1991467165
C         24.2188292772       14.6539511071       19.8046304267
H         24.5899243688       15.5437615565       19.2780005207
H         23.8078058412       13.9735903589       19.0468012137
O         25.2957674462       14.0236247896       20.5096715714
H         25.9475578058       13.7145021162       19.8430749404
N         20.1156046334       17.8170473422       25.0581084070
H         20.8230025888       18.0123409684       25.7708191482
H         20.2409373149       16.8359562350       24.7603430093
H         19.1986464739       17.8865217044       25.5053098384
C         20.2378442761       18.7628525619       23.8955205365
H         21.2401306203       18.6177342424       23.4821282337
C         20.1201713999       20.2152948932       24.3813152973
H         20.2382547523       20.9202878945       23.5538418526
H         20.8990837296       20.4424344728       25.1192919354
H         19.1454562273       20.4014808173       24.8486269427
C         19.1997243305       18.4304631956       22.7995640640
H         19.2069257694       17.3483529276       22.6291558009
H         18.1968991065       18.6771286950       23.1687324631
C         19.4306953453       19.1267474528       21.4356720310
H         19.3818789554       20.2159643064       21.5450863725
H         18.6080921870       18.8557718595       20.7617547020
C         20.7689877698       18.7292052880       20.7765563333
H         20.8459145400       17.6420178028       20.6575936999
H         21.6224751474       19.0687318693       21.3758250795
H         20.8601398549       19.1783888588       19.7797973732
