   152
FE Rank=1      G=572.481           E=369.231           -TS=203.250              
C         16.1885782530       14.9874347163       20.7976928283
H         15.1380702507       14.8401401618       20.5160239598
O         16.4885093408       16.3734211995       21.0677852603
C         16.5416823790       14.1642413060       22.0617099821
H         16.4206994792       13.1022802309       21.8110603351
O         15.6761175911       14.4895462371       23.1602564979
H         15.6001759881       15.4768444920       23.1995545036
C         18.0206248204       14.4016019532       22.4434053548
H         18.1312585522       15.4574329366       22.7190264736
O         18.3792213809       13.5750613868       23.5559269539
H         17.6173272055       13.6364961695       24.1743200377
C         18.9585971020       14.1120847326       21.2464908446
H         19.0255149423       13.0233019871       21.1227721518
C         18.4705117645       14.7631991207       19.9187429250
H         18.6481704794       15.8431469666       19.9756834709
O         17.0518057916       14.5328377917       19.7355632009
C         19.2051411700       14.2393760093       18.6615949238
H         20.2315245141       14.6267088587       18.6668832673
H         18.7119996976       14.6501773252       17.7706400864
O         19.2236137678       12.8070874533       18.6039432549
H         19.7123228323       12.5509039081       17.7918983399
C         14.8606020706       20.1814845697       20.9706203521
H         14.2134722386       21.0633995301       20.8821294223
O         16.2566802906       20.5561286292       20.9945800698
C         14.5038894579       19.3537619478       22.2361911574
H         13.4747804065       18.9948299749       22.1040094872
O         14.5641245108       20.1349835572       23.4383171790
H         15.5115842505       20.3948959353       23.5617284110
C         15.4258790294       18.1170405152       22.3423430045
H         16.4549036988       18.4667060548       22.4903079543
O         15.0231135324       17.3179002558       23.4584349902
H         14.8420519613       17.9601679287       24.1806945721
C         15.3706860544       17.2810384449       21.0396594946
H         14.4090327342       16.7516536078       21.0150466211
C         15.5225415322       18.1523607539       19.7615098000
H         16.5655739932       18.4868176572       19.6986918992
O         14.6578412690       19.3137056189       19.8353225281
C         15.2037049277       17.3846137843       18.4561699554
H         16.0032731538       16.6527263275       18.2785759083
H         15.2192776527       18.0948177896       17.6186770625
O         13.9380680121       16.7144375705       18.5188117754
H         13.7824721945       16.2906264236       17.6467184114
C         18.7423216946       23.7957647475       21.8885927616
H         19.1325428110       24.7593672608       22.2388705010
O         19.6960962844       23.1097612873       21.0511057207
C         18.3664004831       22.8882358171       23.0921891387
H         17.6040144897       23.4246949627       23.6721445476
O         19.4906989353       22.6101111070       23.9425331498
H         20.1193719538       23.3646222034       23.8486405852
C         17.7509457933       21.5593064656       22.6033461008
H         18.5263178600       21.0108679412       22.0559737915
O         17.3320197670       20.8051658986       23.7443670714
H         18.0726470875       20.9094188138       24.3834161476
C         16.5685037873       21.8113928196       21.6367590944
H         15.7197279342       22.1997128176       22.2151408189
C         16.9451290279       22.8271298967       20.5224478942
H         17.6717404600       22.3483096684       19.8527144113
O         17.5449534784       24.0094137249       21.1106008264
C         15.7403149807       23.2710404023       19.6582774993
H         15.4345642357       22.4258063826       19.0268413992
H         16.0683322557       24.0769132410       18.9881231233
O         14.6322396470       23.7063671812       20.4566187195
H         13.9433548315       24.0509332483       19.8472575312
C         23.7748246551       22.9077252035       20.5872844347
H         24.8436629486       23.0066325109       20.3580683085
O         23.4243936490       21.5414567000       20.9037160964
C         23.3506474649       23.8579451088       21.7362372398
H         23.4629830161       24.8831633617       21.3594833610
O         24.1721547309       23.7114781750       22.9031190426
H         23.9743164063       22.8170581567       23.2785640105
C         21.8572999117       23.6415927337       22.0788836500
H         21.7416769845       22.6227627704       22.4718118891
O         21.4779130269       24.5948707275       23.0786865127
H         22.2602207776       24.6651313755       23.6724210917
C         20.9582950965       23.7720214963       20.8139414733
H         20.8099049333       24.8363011179       20.5929228892
C         21.5583982287       23.0663233862       19.5620247124
H         21.3955432668       21.9881260717       19.6778562481
O         22.9840989010       23.3059978979       19.4485831526
C         20.8780922369       23.4820844055       18.2344427463
H         19.8522203027       23.0894615050       18.2278085960
H         21.4146216845       23.0020974256       17.4052675302
O         20.8556359439       24.9023294265       18.0445760966
H         20.1669369456       25.2721543656       18.6372405671
C         24.7026465991       17.9167717253       22.4072786483
H         25.2568482867       17.0846234841       22.8596679187
O         23.4997800543       17.4590218249       21.7550973321
C         24.3232934081       18.9538323225       23.4927932286
H         25.2610815033       19.3062394420       23.9418062057
O         23.4999537179       18.3699456810       24.5172236476
H         23.6214717920       17.3913383157       24.4617305341
C         23.6017394006       20.1698032673       22.8694928650
H         22.6268150074       19.8354191927       22.5003578486
O         23.4148822445       21.1508836905       23.8919248174
H         23.0721450324       20.6413753301       24.6608441440
C         24.3725085204       20.7600816458       21.6599197599
H         25.2127893265       21.3637827501       22.0271195993
C         24.8898054936       19.6586754315       20.6923815254
H         24.0262903319       19.2539984781       20.1486646699
O         25.5260664531       18.5856923494       21.4296168590
C         25.8869923986       20.1900317376       19.6351055260
H         25.3354188498       20.8172179349       18.9216585395
H         26.2915522096       19.3364746389       19.0748292280
O         26.9501928684       20.9480162338       20.2259081727
H         27.5791949158       21.1872350257       19.5104654164
C         21.3854028968       13.8656844279       21.4053093058
H         21.1126008676       12.8168340886       21.2327127473
O         20.2257571701       14.6970275747       21.5998623772
C         22.2482456125       13.9894929361       22.6839686357
H         23.1378241761       13.3615193840       22.5447261976
O         21.5155027910       13.5291351327       23.8317152643
H         20.5642826221       13.7538544338       23.6771828704
C         22.7200116865       15.4490962804       22.8982566257
H         21.8375514943       16.0563519542       23.1377744055
O         23.6366741105       15.4746630737       23.9977785752
H         23.2415429336       14.8703259486       24.6668915490
C         23.3701802311       16.0298238635       21.6097815224
H         24.3473234927       15.5576811687       21.4410866339
C         22.4842648987       15.7858414558       20.3606338099
H         21.5747618308       16.3920678672       20.4442134652
O         22.1524215656       14.3787209350       20.2978844642
C         23.2013914736       16.1666483617       19.0463985767
H         23.9707807946       15.4149335804       18.8251666040
H         23.7083568013       17.1310173962       19.1797912696
O         22.2633746321       16.2642478859       17.9692629935
H         22.7676871099       16.4527077383       17.1498226102
C         20.6519295599       19.4390030164       18.0140753849
H         20.5308510973       20.5259934847       18.0765793593
H         21.7216590739       19.2041395590       18.0908143093
H         20.3084360237       19.1186032927       17.0221407897
C         19.8491134335       18.7264293363       19.1210485665
H         19.9196821143       17.6405765968       18.9686435591
H         18.7875958664       18.9942838612       19.0337610125
C         20.3665163497       19.0858287025       20.5304367441
H         21.4309177403       18.8259595759       20.6026369714
H         20.2953880508       20.1701349791       20.6890403903
C         19.5744223721       18.3485222269       21.6327697934
H         19.5972523471       17.2694827649       21.4444123228
H         18.5211458351       18.6538719831       21.5934218383
C         20.1499772102       18.6231677058       23.0372558348
H         21.1974081958       18.3027429167       23.0641779442
H         20.1402860546       19.7025964632       23.2431973933
C         19.3812724026       17.8712539724       24.1412414166
H         19.4444669828       16.7909919044       23.9602548972
H         18.3186063429       18.1467014505       24.1139383747
C         19.9650830116       18.1853727609       25.5280250992
H         21.0245296250       17.9132842808       25.5514097365
H         19.8814074668       19.2569137677       25.7287385076
N         19.2622096213       17.4405756907       26.6437077915
H         19.6636907790       17.6639999848       27.5604075879
H         19.3317477901       16.4249147057       26.5235287282
H         18.2650380758       17.6745037556       26.6855137030
